data_c00045.vasp
_audit_creation_method             Generated by GULP
_audit_author_name                 Salvador R. G. Balestra
_symmetry_space_group_name_H-M     'P 1             '
_symmetry_Int_Tables_number        1

loop_
_symmetry_equiv_pos_site_id
_symmetry_equiv_pos_as_xyz
_cell_length_a                       10.3031
_cell_length_b                       15.1925
_cell_length_c                        8.9401
_cell_angle_alpha                   90.3372
_cell_angle_beta                   104.7974
_cell_angle_gamma                   89.9293

loop_
_atom_site_label
_atom_site_type_symbol
_atom_site_fract_x
_atom_site_fract_y
_atom_site_fract_z
_atom_site_charge
  Ge     Ge        0.351599999999962    0.244500000000016    0.893900000000031  0.0000
  Ge     Ge        0.651307867189942    0.241161231243408    0.108228069765905  0.0000
  Ge     Ge        0.140872124757543    0.256468635302612    0.105799446354860  0.0000
  Ge     Ge        0.318006979073300    0.603052864123569    0.334458279001590  0.0000
  Si     Si        0.659841290945984    0.759996041096385    0.110115956562304  0.0000
  Si     Si        0.367978849466641    0.756408979869840    0.904895949873805  0.0000
  Si     Si        0.859866729184660    0.749250509280735    0.894137755862682  0.0000
  Si     Si        0.154184122894411    0.740209354805425    0.103191171138589  0.0000
  Si     Si        0.850448432775875    0.256886112999286    0.893656798321900  0.0000
  Si     Si        0.325924993621386    0.393862478335401    0.337807084094297  0.0000
  Si     Si        0.721181286123359    0.403613793364603    0.671170084600067  0.0000
  Si     Si        0.718987281140903    0.604557558596973    0.665476884903915  0.0000
  Si     Si        0.823100296584655    0.896711697797556    0.339364898818248  0.0000
  Si     Si        0.217246821860297    0.894855532170863    0.672116112244312  0.0000
  Si     Si        0.224619519439349    0.096963517957965    0.664220183976168  0.0000
  Si     Si        0.827490419476232    0.100905884380896    0.336596983711453  0.0000
  Si     Si        0.424688656600033    0.402567030756356    0.696096596991985  0.0000
  Si     Si        0.620173390262538    0.401134646005915    0.312517287649088  0.0000
  Si     Si        0.618776088634043    0.606021270382421    0.312315761338300  0.0000
  Si     Si        0.418978601222753    0.604848573599636    0.692202011521296  0.0000
  Si     Si        0.919370310730213    0.901447275949345    0.694373317265763  0.0000
  Si     Si        0.118135328718711    0.891694931236519    0.316888148036015  0.0000
  Si     Si        0.120640019717428    0.094859023801481    0.306901896694914  0.0000
  Si     Si        0.929541012757325    0.103695344169559    0.693712594529473  0.0000
  O1     O1        0.483744333428660    0.220214743729446    0.045163958322352  0.0000
  O2     O2        0.507116440480233    0.782824586635389    0.023705759236200  0.0000
  O2     O2        0.002827619335708    0.726682124059973    0.005221595107582  0.0000
  O3     O3        0.971142668849684    0.278473918619610    0.040822772439908  0.0000
  O3     O3        0.337587379340538    0.160831561769263    0.757812492296392  0.0000
  O3     O3        0.710160938192948    0.159489917775944    0.240663515907893  0.0000
  O2     O2        0.705834167620236    0.836717887860630    0.237300904137314  0.0000
  O2     O2        0.329154621951044    0.832433468047161    0.776450823456405  0.0000
  O2     O2        0.825553306050864    0.671208140992133    0.768058833503304  0.0000
  O3     O3        0.186982981055357    0.659979109658574    0.219661650183713  0.0000
  O3     O3        0.207773817013402    0.332258608101164    0.248062241897637  0.0000
  O2     O2        0.831003469109526    0.337238490188745    0.770916403396931  0.0000
  O3     O3        0.378028810854613    0.344780246261202    0.817488453697527  0.0000
  O3     O3        0.681873162284727    0.342870810194325    0.200686406155745  0.0000
  O2     O2        0.674828883939954    0.665346058171104    0.193984182900279  0.0000
  O2     O2        0.382713211021251    0.663891414011067    0.823970846891591  0.0000
  O2     O2        0.863095045776364    0.842484325038954    0.810957729812090  0.0000
  O2     O2        0.173565109670625    0.831168051126700    0.200668418042864  0.0000
  O3     O3        0.173825605188010    0.152945912396948    0.189548477046704  0.0000
  O2     O2        0.883472713366450    0.167470361386761    0.812436416181121  0.0000
  O1     O1        0.208303857788782    0.259496119604284    0.952258438584709  0.0000
  O3     O3        0.717633970420497    0.240631731584113    0.950306646924863  0.0000
  O2     O2        0.747948676542852    0.757314127526587    0.987514689953838  0.0000
  O2     O2        0.253355085104637    0.743425876383323    0.992725026936714  0.0000
  O2     O2        0.466124244177656    0.369772731586170    0.295051375124393  0.0000
  O2     O2        0.581492128580132    0.384293841720469    0.712476602665915  0.0000
  O2     O2        0.571924697062347    0.622717981956198    0.688038873179383  0.0000
  O3     O3        0.468171936040921    0.635971389871579    0.301068620877548  0.0000
  O2     O2        0.962858730023285    0.869000685807778    0.302761820918217  0.0000
  O2     O2        0.074816421761799    0.878229905818274    0.710152041605596  0.0000
  O2     O2        0.086555516253037    0.120291411404416    0.710453927429522  0.0000
  O2     O2        0.965805188826280    0.123250066254752    0.290976038489487  0.0000
  O2     O2        0.342202731785227    0.381774830377402    0.520825953297277  0.0000
  O2     O2        0.705990168582157    0.387784596202257    0.489350571054133  0.0000
  O2     O2        0.713348163906183    0.619342764045288    0.485493650118393  0.0000
  O3     O3        0.322539179659018    0.624217296342990    0.525832204767949  0.0000
  O2     O2        0.832853585136258    0.881869422493563    0.520158077425103  0.0000
  O2     O2        0.204852790004161    0.874139051072530    0.491772478638542  0.0000
  O2     O2        0.206193910884077    0.111915567912429    0.482288171395517  0.0000
  O2     O2        0.845410756405564    0.120762511984126    0.518498002787904  0.0000
  O3     O3        0.289447990567633    0.493745432042276    0.291045683376294  0.0000
  O2     O2        0.765805202021392    0.504673047304739    0.713818708292398  0.0000
  O2     O2        0.791171359870927    0.998531028120802    0.299117466584057  0.0000
  O2     O2        0.263066700059710    0.995638838744179    0.707791686793160  0.0000
  O2     O2        0.402073698505987    0.503873554259647    0.736297804945365  0.0000
  O2     O2        0.621077629889776    0.503410844412537    0.265466239030310  0.0000
  O2     O2        0.905634930616059    0.003287695451355    0.739230915359866  0.0000
  O2     O2        0.131303488556135    0.992071841658912    0.267637814721890  0.0000
