data_c00092.vasp
_audit_creation_method             Generated by GULP
_audit_author_name                 Salvador R. G. Balestra
_symmetry_space_group_name_H-M     'P 1             '
_symmetry_Int_Tables_number        1

loop_
_symmetry_equiv_pos_site_id
_symmetry_equiv_pos_as_xyz
_cell_length_a                       10.1984
_cell_length_b                       15.2095
_cell_length_c                        8.9723
_cell_angle_alpha                   89.4187
_cell_angle_beta                   105.2144
_cell_angle_gamma                   89.8322

loop_
_atom_site_label
_atom_site_type_symbol
_atom_site_fract_x
_atom_site_fract_y
_atom_site_fract_z
_atom_site_charge
  Ge     Ge        0.351599999999962    0.244500000000016    0.893900000000031  0.0000
  Ge     Ge        0.658126416647715    0.266008787819743    0.111611584489083  0.0000
  Ge     Ge        0.763930365309823    0.913778815400775    0.331163655761506  0.0000
  Ge     Ge        0.366716942515144    0.607722786676908    0.692845269513882  0.0000
  Si     Si        0.626228666287221    0.767681656654962    0.105109606557415  0.0000
  Si     Si        0.330154961098276    0.763763175884521    0.894964212330295  0.0000
  Si     Si        0.835627918403761    0.754143406225487    0.903955342267469  0.0000
  Si     Si        0.132684619250952    0.758300604886648    0.108185023685596  0.0000
  Si     Si        0.150783266293040    0.262505022061452    0.109085460588392  0.0000
  Si     Si        0.860936442632562    0.270772597515630    0.898249972736350  0.0000
  Si     Si        0.287692875696502    0.411000427203616    0.322474352608795  0.0000
  Si     Si        0.679098197271301    0.408592797332652    0.673830752627746  0.0000
  Si     Si        0.674638487709836    0.614625632623239    0.679501319660287  0.0000
  Si     Si        0.274426846483907    0.611594178140635    0.332196408148148  0.0000
  Si     Si        0.166967873183717    0.901596144402177    0.663045202711515  0.0000
  Si     Si        0.181192601598609    0.104419524560735    0.671434442484215  0.0000
  Si     Si        0.776823758947117    0.117467102128465    0.344522852451703  0.0000
  Si     Si        0.377146734271962    0.403316315536227    0.684637664271648  0.0000
  Si     Si        0.589666833619032    0.416113299293464    0.316890643879573  0.0000
  Si     Si        0.581029696500443    0.619492810468790    0.328603493679970  0.0000
  Si     Si        0.868712145042262    0.909098493905246    0.694042559123034  0.0000
  Si     Si        0.071046061199262    0.908853856214971    0.310244169513926  0.0000
  Si     Si        0.076044570592555    0.112468378432626    0.316398538969088  0.0000
  Si     Si        0.885528715340336    0.110283618734622    0.702537478020987  0.0000
  O1     O1        0.523457596845898    0.239752103191790    0.963961459269646  0.0000
  O2     O2        0.490076444395357    0.776682439308539    0.968189761374975  0.0000
  O2     O2        0.993031794874545    0.737199042744233    0.984525395674157  0.0000
  O2     O2        0.023053903459944    0.284501303508764    0.964067171977987  0.0000
  O3     O3        0.305345438996536    0.154740789616853    0.776803633410804  0.0000
  O3     O3        0.671499339714321    0.189719869973577    0.259043155463877  0.0000
  O3     O3        0.639858021800976    0.849650777176571    0.217514510886692  0.0000
  O2     O2        0.282569973259030    0.838567803587429    0.763812662754018  0.0000
  O2     O2        0.790452520855875    0.672528030798483    0.790094785092518  0.0000
  O2     O2        0.163645612339407    0.676155379504605    0.226085126595746  0.0000
  O2     O2        0.175666939716797    0.345001508672771    0.225485300803340  0.0000
  O2     O2        0.800150146891522    0.349820613603286    0.778297051225683  0.0000
  O3     O3        0.308626508701699    0.337151349991184    0.777940895472285  0.0000
  O3     O3        0.647349689554775    0.367217850411885    0.193435153151315  0.0000
  O2     O2        0.628352220290523    0.679427736771667    0.206176297736417  0.0000
  O3     O3        0.302185668141948    0.669883157244868    0.815575543183352  0.0000
  O2     O2        0.815683009391206    0.846488475850162    0.810435840994643  0.0000
  O2     O2        0.126523453458481    0.849680426141759    0.193729348357374  0.0000
  O2     O2        0.128118610633148    0.174251622691041    0.199370886454237  0.0000
  O2     O2        0.831649720816900    0.177209993402718    0.810686208539094  0.0000
  O3     O3        0.281482562712519    0.246252283323865    0.047699834320335  0.0000
  O3     O3        0.800174602045799    0.269925712028072    0.043259214071438  0.0000
  O2     O2        0.753281339549607    0.760906986354147    0.032188734477811  0.0000
  O2     O2        0.252989592591740    0.771385386744821    0.027154946724607  0.0000
  O2     O2        0.431990280315000    0.388914460693472    0.289174483328761  0.0000
  O2     O2        0.537799758990269    0.380224318349815    0.709724158991851  0.0000
  O3     O3        0.531473287298318    0.639758790955060    0.707506952134872  0.0000
  O2     O2        0.424804572072674    0.638900680811608    0.322690763486825  0.0000
  O3     O3        0.916446038228253    0.885611559686530    0.296419847456624  0.0000
  O2     O2        0.020876751568941    0.880227587834229    0.691734015543048  0.0000
  O2     O2        0.042156758968692    0.133110895793953    0.713385299254587  0.0000
  O2     O2        0.920906191084669    0.136364431436485    0.306675874900710  0.0000
  O2     O2        0.300038788192551    0.399588975235711    0.503543419432362  0.0000
  O2     O2        0.670753473843251    0.393180919221216    0.493871214855566  0.0000
  O2     O2        0.672632029571806    0.637183264696636    0.501880599448200  0.0000
  O3     O3        0.266847749072155    0.619926031003799    0.506252531768070  0.0000
  O3     O3        0.771074415576851    0.900097505261446    0.524470027284646  0.0000
  O2     O2        0.160369930467808    0.887420518658210    0.483891740955686  0.0000
  O2     O2        0.167598162924905    0.125342873217270    0.490957568103370  0.0000
  O2     O2        0.794911412806771    0.121333470461553    0.527886693471133  0.0000
  O2     O2        0.243544196381965    0.511444670691826    0.273420674392858  0.0000
  O2     O2        0.706506127470562    0.511103621579046    0.714285305729432  0.0000
  O3     O3        0.724827618310578    0.022203211587764    0.283353033685286  0.0000
  O2     O2        0.207370767431163    0.001338391612702    0.707567699884830  0.0000
  O3     O3        0.364858979492432    0.499623731738699    0.748398343854232  0.0000
  O2     O2        0.599997314786011    0.519452089935873    0.284453922914874  0.0000
  O2     O2        0.870460013817990    0.009536705764777    0.754785063699732  0.0000
  O2     O2        0.086014493624663    0.011218135940813    0.267701431817785  0.0000
