data_c00048.vasp
_audit_creation_method             Generated by GULP
_audit_author_name                 Salvador R. G. Balestra
_symmetry_space_group_name_H-M     'P 1             '
_symmetry_Int_Tables_number        1

loop_
_symmetry_equiv_pos_site_id
_symmetry_equiv_pos_as_xyz
_cell_length_a                       10.2552
_cell_length_b                       15.2371
_cell_length_c                        8.9296
_cell_angle_alpha                   90.4011
_cell_angle_beta                   104.9773
_cell_angle_gamma                   90.0587

loop_
_atom_site_label
_atom_site_type_symbol
_atom_site_fract_x
_atom_site_fract_y
_atom_site_fract_z
_atom_site_charge
  Ge     Ge        0.351599999999962    0.244500000000016    0.893900000000031  0.0000
  Ge     Ge        0.650327943645286    0.230959362774641    0.109781757551198  0.0000
  Ge     Ge        0.137255449644786    0.250431832798478    0.100114722444992  0.0000
  Ge     Ge        0.227298241750941    0.092741808125978    0.659430848794264  0.0000
  Si     Si        0.662764530556508    0.748375728669846    0.107249979282058  0.0000
  Si     Si        0.368449897527911    0.747357063856155    0.897025341904238  0.0000
  Si     Si        0.867576405146701    0.738845904488723    0.896272173306627  0.0000
  Si     Si        0.162291802710931    0.730429968805956    0.104327444387122  0.0000
  Si     Si        0.843855118112102    0.246741693562900    0.890142350550868  0.0000
  Si     Si        0.325366678740538    0.388177088831954    0.334264321717423  0.0000
  Si     Si        0.720194186634062    0.396251857998841    0.673297098097717  0.0000
  Si     Si        0.722545567888697    0.596603222182990    0.665947968794648  0.0000
  Si     Si        0.324522305959099    0.593382776216703    0.329600077629477  0.0000
  Si     Si        0.825816930676333    0.884283426470150    0.339883055528489  0.0000
  Si     Si        0.224317610413558    0.889660318964707    0.672452318301698  0.0000
  Si     Si        0.825038796301077    0.087956963165552    0.332314721865101  0.0000
  Si     Si        0.421332321657599    0.397135674356036    0.690828450281241  0.0000
  Si     Si        0.623175535261714    0.391556282163810    0.312472705144259  0.0000
  Si     Si        0.622853088863668    0.593535389392690    0.309087750524841  0.0000
  Si     Si        0.420638219770182    0.599157871579399    0.681520374824637  0.0000
  Si     Si        0.923915499039578    0.892043853274538    0.694645714099917  0.0000
  Si     Si        0.121096826706316    0.883672383151799    0.314067606364807  0.0000
  Si     Si        0.119360511903175    0.085313034086907    0.295473842885506  0.0000
  Si     Si        0.923834790194661    0.094960998616168    0.689461803896404  0.0000
  O1     O1        0.479424781731878    0.220273856271647    0.051647138023426  0.0000
  O2     O2        0.509697971254946    0.769502351577761    0.017656326129250  0.0000
  O2     O2        0.008263289249971    0.713622840809623    0.013412875957466  0.0000
  O3     O3        0.965257957043621    0.267625085973287    0.038622525520924  0.0000
  O1     O1        0.345384160713405    0.164426650692156    0.756739529709759  0.0000
  O3     O3        0.706278467364906    0.143424046154585    0.229226211705861  0.0000
  O2     O2        0.708102736539467    0.824126230137209    0.236666984399446  0.0000
  O2     O2        0.334982035040830    0.823871757707280    0.770275029532157  0.0000
  O2     O2        0.832919896238198    0.662771643105283    0.765906575347202  0.0000
  O2     O2        0.206446577508148    0.648146685994560    0.217440659376948  0.0000
  O3     O3        0.205307518690645    0.329233180170305    0.238438897384635  0.0000
  O2     O2        0.828658679910283    0.328576811218505    0.771339871145722  0.0000
  O3     O3        0.372064326045955    0.345873315536448    0.817696520889863  0.0000
  O3     O3        0.689452135470611    0.329414287553135    0.210782495938184  0.0000
  O2     O2        0.676055439391702    0.654213697978979    0.191446741566907  0.0000
  O2     O2        0.373005517646139    0.656370786508653    0.807443339463531  0.0000
  O2     O2        0.874931791074394    0.832521710585553    0.816649713432764  0.0000
  O2     O2        0.179484498068989    0.819873207875748    0.204549015198171  0.0000
  O3     O3        0.167908912211939    0.145593668074408    0.176805921813076  0.0000
  O2     O2        0.870130757525942    0.157221868672344    0.805416507212860  0.0000
  O1     O1        0.203129737611176    0.253882123272251    0.945448635786129  0.0000
  O3     O3        0.709987080350257    0.232266887359261    0.946798204693794  0.0000
  O2     O2        0.752998089098068    0.746664108093442    0.986636844637618  0.0000
  O2     O2        0.252145520056164    0.739241176484870    0.984389665627667  0.0000
  O2     O2        0.464016552608554    0.367190682098946    0.285341514312026  0.0000
  O2     O2        0.580653551488072    0.380631859622469    0.718616324913930  0.0000
  O2     O2        0.578778527467979    0.615545289832602    0.699817398795751  0.0000
  O2     O2        0.466097055903225    0.615211623410091    0.291436181808974  0.0000
  O2     O2        0.967422452113080    0.856743016662741    0.306268352857091  0.0000
  O2     O2        0.079256142745423    0.871273127710963    0.704707999107571  0.0000
  O3     O3        0.077396216640583    0.118559655451193    0.703940555867875  0.0000
  O2     O2        0.966366029605648    0.113330953054997    0.295073838344447  0.0000
  O2     O2        0.345287127242207    0.367316867102774    0.515880325670748  0.0000
  O2     O2        0.700717657546127    0.377768016022283    0.491874594666583  0.0000
  O2     O2        0.710576091887079    0.611634337128691    0.484373498084333  0.0000
  O2     O2        0.335523141542146    0.621782106687194    0.507131454888020  0.0000
  O2     O2        0.833509658632263    0.871090622302157    0.521140131307779  0.0000
  O2     O2        0.212425199509001    0.877105769508843    0.489457535171623  0.0000
  O3     O3        0.214821491173134    0.101673152259607    0.465350440230181  0.0000
  O2     O2        0.836518332990704    0.108113798573700    0.512890531302024  0.0000
  O2     O2        0.289903668165425    0.490716902162153    0.303662009839108  0.0000
  O2     O2        0.769322210457791    0.496781810972950    0.711910271675698  0.0000
  O2     O2        0.793663071709639    0.985272735992940    0.295580359126426  0.0000
  O3     O3        0.271819757886938    0.987253371896321    0.721027156819538  0.0000
  O2     O2        0.393091144554729    0.499047097822523    0.715525350282135  0.0000
  O2     O2        0.637943497197082    0.492269056975801    0.264426607181747  0.0000
  O2     O2        0.909037636035182    0.993783144403123    0.737981004103121  0.0000
  O2     O2        0.125060828215040    0.982479868647733    0.252073730980803  0.0000
