data_c00080.vasp
_audit_creation_method             Generated by GULP
_audit_author_name                 Salvador R. G. Balestra
_symmetry_space_group_name_H-M     'P 1             '
_symmetry_Int_Tables_number        1

loop_
_symmetry_equiv_pos_site_id
_symmetry_equiv_pos_as_xyz
_cell_length_a                       10.2728
_cell_length_b                       15.2514
_cell_length_c                        8.9449
_cell_angle_alpha                   90.3147
_cell_angle_beta                   105.3321
_cell_angle_gamma                   89.7456

loop_
_atom_site_label
_atom_site_type_symbol
_atom_site_fract_x
_atom_site_fract_y
_atom_site_fract_z
_atom_site_charge
  Ge     Ge        0.351599999999962    0.244500000000016    0.893900000000031  0.0000
  Ge     Ge        0.656455456127015    0.240797365178782    0.108916271814406  0.0000
  Ge     Ge        0.691176040997615    0.603291278697027    0.681719612607092  0.0000
  Ge     Ge        0.592820584540516    0.601914070966959    0.310237870128306  0.0000
  Si     Si        0.630102175727595    0.755831740514318    0.100600521736877  0.0000
  Si     Si        0.329717859103186    0.756698663175389    0.898635516842635  0.0000
  Si     Si        0.839430770078900    0.748594287275108    0.903157626274623  0.0000
  Si     Si        0.132228021301227    0.745212946998023    0.115811683602676  0.0000
  Si     Si        0.151118457949667    0.253275710269862    0.110559255057305  0.0000
  Si     Si        0.861269933526239    0.255335751798877    0.902224311304052  0.0000
  Si     Si        0.289553317176710    0.400026959934516    0.334048450234017  0.0000
  Si     Si        0.683321059448868    0.395482559084119    0.680645201717819  0.0000
  Si     Si        0.290635783087070    0.600823579935458    0.327874858011981  0.0000
  Si     Si        0.792349804765759    0.892501941911762    0.336252671489577  0.0000
  Si     Si        0.189257575413166    0.900603389848492    0.674211957650956  0.0000
  Si     Si        0.184603269047796    0.101454947720611    0.666277915758428  0.0000
  Si     Si        0.783787445350817    0.094427263700757    0.335850685516188  0.0000
  Si     Si        0.381794818959595    0.403907549152487    0.693386164597714  0.0000
  Si     Si        0.592117607504575    0.395462329478046    0.323511972555643  0.0000
  Si     Si        0.387957139678089    0.605651095258294    0.692209937942404  0.0000
  Si     Si        0.890426595601923    0.898286029194919    0.692106063140962  0.0000
  Si     Si        0.091789115960525    0.898816673321840    0.317425969800671  0.0000
  Si     Si        0.079272007127673    0.099914779048762    0.308181235503541  0.0000
  Si     Si        0.888766470414668    0.099800574284076    0.693055414736643  0.0000
  O1     O1        0.520193480483283    0.224361773894785    0.957750588158227  0.0000
  O2     O2        0.472597292251137    0.772586147220638    0.020649350575427  0.0000
  O2     O2        0.974965563716086    0.733110263780945    0.036569674671753  0.0000
  O2     O2        0.021210606898674    0.274834261402795    0.968879973792816  0.0000
  O3     O3        0.298968681300914    0.164526976047703    0.755842161307801  0.0000
  O3     O3        0.667726703236182    0.154370729646006    0.236644050628786  0.0000
  O2     O2        0.678739670922695    0.829572676473567    0.234055512951174  0.0000
  O2     O2        0.302157525589741    0.838988531495877    0.781725798105634  0.0000
  O3     O3        0.820480284215891    0.665373371183426    0.792025228590270  0.0000
  O2     O2        0.173092218472607    0.664826142125185    0.234732857196320  0.0000
  O2     O2        0.178419720530529    0.334276793095208    0.232730276902359  0.0000
  O2     O2        0.795316808899069    0.333081247220645    0.786536432227489  0.0000
  O3     O3        0.321877660161617    0.346228863813705    0.805516403009230  0.0000
  O3     O3        0.641961244672319    0.336848363650914    0.204224982433161  0.0000
  O3     O3        0.651515008774257    0.661438449088162    0.179429082368584  0.0000
  O2     O2        0.322130626232862    0.668539715565074    0.796780626399298  0.0000
  O2     O2        0.841050266769173    0.838268778808814    0.810608566360347  0.0000
  O2     O2        0.154908200831888    0.837133399176842    0.209065764174637  0.0000
  O2     O2        0.130022344521749    0.163226916184984    0.193954155026446  0.0000
  O2     O2        0.835587151147234    0.163456080923741    0.807375062248862  0.0000
  O3     O3        0.280195464919290    0.239609721433294    0.046172840684007  0.0000
  O3     O3        0.800163164262150    0.249673539169021    0.046462462699723  0.0000
  O2     O2        0.712198767353257    0.760320398852141    0.972927165049442  0.0000
  O2     O2        0.215477299866437    0.747592380093933    0.988721206715627  0.0000
  O2     O2        0.429383755357599    0.389667639286541    0.286356161438472  0.0000
  O2     O2        0.543573638619677    0.387741526438639    0.730973881944518  0.0000
  O3     O3        0.547007230971228    0.619260135317222    0.743440632740114  0.0000
  O3     O3        0.419305149929722    0.613239848217783    0.263006593913146  0.0000
  O2     O2        0.936302187675122    0.873265904877852    0.302021986550567  0.0000
  O2     O2        0.046452384357800    0.878208045752781    0.706201054288801  0.0000
  O2     O2        0.044784238122909    0.122811201031270    0.709588690261930  0.0000
  O2     O2        0.922447004615308    0.118983518071375    0.292510653074341  0.0000
  O2     O2        0.312374370574483    0.377821337928658    0.514865196354646  0.0000
  O2     O2        0.658111398745694    0.366724717590078    0.501266838360097  0.0000
  O1     O1        0.664055109736005    0.636721307841330    0.494819020564905  0.0000
  O2     O2        0.330881964050974    0.626001020730406    0.509851206000584  0.0000
  O2     O2        0.803180063941713    0.876884064996527    0.517524376019733  0.0000
  O2     O2        0.179726779924438    0.884530878459545    0.493505717149603  0.0000
  O2     O2        0.165598295801388    0.115680726788079    0.483690649308951  0.0000
  O2     O2        0.801280858041198    0.113776803841098    0.517329746054286  0.0000
  O2     O2        0.238150661516819    0.500335675006729    0.303775639817566  0.0000
  O3     O3        0.735822984458570    0.494004030320274    0.700914567732956  0.0000
  O2     O2        0.748814742041390    0.992787901229951    0.296005286591803  0.0000
  O2     O2        0.227792603548732    0.001501411940918    0.714526514674253  0.0000
  O2     O2        0.352944720036494    0.505453297615710    0.723101174193279  0.0000
  O3     O3        0.635501687060136    0.493585438096375    0.299558814996898  0.0000
  O2     O2        0.872328705185970    0.999103867957624    0.738704727379369  0.0000
  O2     O2        0.099804760442263    0.998882762512386    0.262984319061469  0.0000
