data_c00059.vasp
_audit_creation_method             Generated by GULP
_audit_author_name                 Salvador R. G. Balestra
_symmetry_space_group_name_H-M     'P 1             '
_symmetry_Int_Tables_number        1

loop_
_symmetry_equiv_pos_site_id
_symmetry_equiv_pos_as_xyz
_cell_length_a                       10.2650
_cell_length_b                       15.2110
_cell_length_c                        8.9306
_cell_angle_alpha                   90.0296
_cell_angle_beta                   104.9316
_cell_angle_gamma                   90.4226

loop_
_atom_site_label
_atom_site_type_symbol
_atom_site_fract_x
_atom_site_fract_y
_atom_site_fract_z
_atom_site_charge
  Ge     Ge        0.351599999999962    0.244500000000016    0.893900000000031  0.0000
  Ge     Ge        0.653950144221908    0.226829267518115    0.105134773830781  0.0000
  Ge     Ge        0.323926192193720    0.390520885837206    0.329202865562585  0.0000
  Ge     Ge        0.738969885844247    0.594562586722498    0.662790239023209  0.0000
  Si     Si        0.679958633928221    0.744557548839804    0.096637905200169  0.0000
  Si     Si        0.386216526913667    0.755647317564746    0.888580772352416  0.0000
  Si     Si        0.892041684152145    0.735968341625389    0.894944217032705  0.0000
  Si     Si        0.185848633794159    0.741461403100875    0.104194819912701  0.0000
  Si     Si        0.139650433583446    0.253623612415811    0.097221451160499  0.0000
  Si     Si        0.851413223107101    0.240019921161167    0.884821240385965  0.0000
  Si     Si        0.722420616727740    0.389624625531000    0.667487157412757  0.0000
  Si     Si        0.337813119334373    0.597512722862583    0.327945873845979  0.0000
  Si     Si        0.841601603027792    0.881719817182139    0.333118327650123  0.0000
  Si     Si        0.237904280889518    0.896998829743765    0.664802915768970  0.0000
  Si     Si        0.225878100479800    0.098474616053955    0.656648170781159  0.0000
  Si     Si        0.825888888240293    0.085084407967464    0.327506536678539  0.0000
  Si     Si        0.425449536634445    0.398727717675623    0.692905130333087  0.0000
  Si     Si        0.627222290667804    0.387987233944374    0.306361583611224  0.0000
  Si     Si        0.635722594030999    0.590331159171618    0.302116192028731  0.0000
  Si     Si        0.435024049417261    0.602723695585947    0.681435369636935  0.0000
  Si     Si        0.939170140171427    0.888779600716640    0.687491933403491  0.0000
  Si     Si        0.138655236654940    0.893247494114543    0.308265277879157  0.0000
  Si     Si        0.120805494489602    0.094368726831404    0.298239828978430  0.0000
  Si     Si        0.929734817671134    0.091188688249642    0.684073104558074  0.0000
  O1     O1        0.483665825363600    0.213890152555111    0.040467792717740  0.0000
  O2     O2        0.531679687536518    0.773562063383403    0.003181149671843  0.0000
  O2     O2        0.032718707219411    0.719311567786504    0.017749733436547  0.0000
  O2     O2        0.979032074615153    0.263759173372622    0.026802822141522  0.0000
  O3     O3        0.333354328535423    0.167145516519735    0.747375651526066  0.0000
  O3     O3        0.704362987091725    0.139505112775983    0.228533554103699  0.0000
  O2     O2        0.731139288030337    0.816793104763246    0.230612192216447  0.0000
  O2     O2        0.354115754680403    0.836700242043602    0.768341706944401  0.0000
  O3     O3        0.867261857631881    0.659165017411416    0.769264258075680  0.0000
  O2     O2        0.231897550453008    0.663881500744983    0.226011503271897  0.0000
  O3     O3        0.191204191407249    0.329628490652165    0.222033397015331  0.0000
  O2     O2        0.828483141563979    0.319084410491891    0.760415486778374  0.0000
  O3     O3        0.379240313441756    0.346911802540046    0.823901096460689  0.0000
  O3     O3        0.692594391305307    0.325648817500662    0.203783961674333  0.0000
  O2     O2        0.679348375101952    0.648856992874062    0.173445546705582  0.0000
  O2     O2        0.379561733680697    0.664485720019530    0.796192068779786  0.0000
  O2     O2        0.891056456815969    0.829636237750514    0.810560814167876  0.0000
  O2     O2        0.198352245507584    0.834118151648160    0.194422494904261  0.0000
  O2     O2        0.172627039974107    0.159383874148843    0.184597253957274  0.0000
  O2     O2        0.874344251732381    0.149738475305916    0.801714184500713  0.0000
  O3     O3        0.209161815325717    0.257243201049881    0.957976829884138  0.0000
  O3     O3        0.721718866417262    0.226562305820616    0.948486484828486  0.0000
  O2     O2        0.772883055409129    0.737511006212304    0.979727731196407  0.0000
  O2     O2        0.275128236487085    0.748506386136825    0.983574674061400  0.0000
  O3     O3        0.472580600459537    0.358310447828011    0.289172576176725  0.0000
  O2     O2        0.576040705349669    0.368661669552756    0.693902906385208  0.0000
  O3     O3        0.587212579875520    0.629485739144214    0.689368032190179  0.0000
  O2     O2        0.487101918140629    0.618668062645070    0.310451656674911  0.0000
  O2     O2        0.984541296338049    0.865322295986361    0.295406844122790  0.0000
  O2     O2        0.096530777706676    0.872989270980390    0.701638898572082  0.0000
  O2     O2        0.085711918753043    0.115349909782378    0.702371697382968  0.0000
  O2     O2        0.962694291432202    0.111558637180457    0.279976654969107  0.0000
  O3     O3        0.330108039870363    0.379518605961565    0.523084371477013  0.0000
  O2     O2        0.711910522066616    0.381909714951227    0.485037276969492  0.0000
  O3     O3        0.737274749886316    0.602732135956668    0.469212604011765  0.0000
  O2     O2        0.339877863645559    0.611937435934894    0.507691884930189  0.0000
  O2     O2        0.853771663144366    0.863102765504181    0.514134480025771  0.0000
  O2     O2        0.227283194325651    0.880141770858609    0.483828616730194  0.0000
  O2     O2        0.205008442758543    0.113129862648516    0.473702669180799  0.0000
  O2     O2        0.844222541313150    0.107228529093232    0.508458440367474  0.0000
  O3     O3        0.294824032784844    0.499252139285184    0.276653836616128  0.0000
  O3     O3        0.769574864380478    0.487034087935458    0.722980884488634  0.0000
  O2     O2        0.795963655842548    0.981729093041311    0.295401025446672  0.0000
  O2     O2        0.274758007332035    0.999096086168635    0.703005726982200  0.0000
  O2     O2        0.427973678614341    0.502061002440028    0.733935780078534  0.0000
  O2     O2        0.631729282463447    0.488535369977686    0.249626338331674  0.0000
  O2     O2        0.914542189393753    0.989417599457964    0.726882195788949  0.0000
  O2     O2        0.145094609532459    0.994074972976662    0.254706597911801  0.0000
