data_c00002.vasp
_audit_creation_method             Generated by GULP
_audit_author_name                 Salvador R. G. Balestra
_symmetry_space_group_name_H-M     'P 1             '
_symmetry_Int_Tables_number        1

loop_
_symmetry_equiv_pos_site_id
_symmetry_equiv_pos_as_xyz
_cell_length_a                       10.3046
_cell_length_b                       15.1791
_cell_length_c                        8.9271
_cell_angle_alpha                   90.4250
_cell_angle_beta                   104.8781
_cell_angle_gamma                   90.0542

loop_
_atom_site_label
_atom_site_type_symbol
_atom_site_fract_x
_atom_site_fract_y
_atom_site_fract_z
_atom_site_charge
  Ge     Ge        0.351599999999962    0.244500000000016    0.893900000000031  0.0000
  Ge     Ge        0.655825083908789    0.232051969239908    0.109275974225794  0.0000
  Ge     Ge        0.648739193994692    0.754804354194859    0.108975316661252  0.0000
  Ge     Ge        0.864579533597379    0.742769888918483    0.899053008068421  0.0000
  Si     Si        0.354832709575265    0.752296848199553    0.895042572794016  0.0000
  Si     Si        0.157676763664229    0.733910048041669    0.105653388995339  0.0000
  Si     Si        0.148644382960380    0.255217466282217    0.107309528010307  0.0000
  Si     Si        0.862420943388811    0.252087562751735    0.901184378078502  0.0000
  Si     Si        0.328709671184772    0.392032384267736    0.334018962986972  0.0000
  Si     Si        0.718331397998574    0.394727320080007    0.678307654940244  0.0000
  Si     Si        0.724906519736447    0.597472167017612    0.667730832970741  0.0000
  Si     Si        0.332347961537025    0.597396554963946    0.330491882001008  0.0000
  Si     Si        0.828339142438849    0.889879823680328    0.346859659853612  0.0000
  Si     Si        0.227127490070213    0.896742839870441    0.665967136980213  0.0000
  Si     Si        0.231033846829948    0.097084675708838    0.658972278796881  0.0000
  Si     Si        0.828272985014987    0.095835280654975    0.339864651716370  0.0000
  Si     Si        0.420848840485007    0.398716178904191    0.691830489385460  0.0000
  Si     Si        0.626284080343974    0.390200693365598    0.318450762384067  0.0000
  Si     Si        0.628390023071606    0.592816475788779    0.309708006334871  0.0000
  Si     Si        0.427589451683878    0.603255586881392    0.686102040536456  0.0000
  Si     Si        0.932425309289118    0.899727103281824    0.700110833718484  0.0000
  Si     Si        0.119710981138313    0.891235780391878    0.308064658256047  0.0000
  Si     Si        0.118143618130334    0.094451843441098    0.301278763726726  0.0000
  Si     Si        0.936366682826176    0.102542401784938    0.692830663093821  0.0000
  O1     O1        0.487459583225524    0.218332983105352    0.038380700542297  0.0000
  O3     O3        0.479764571304775    0.774415961640398    0.036082146018570  0.0000
  O3     O3        0.002066547286390    0.712450687139942    0.043050211551370  0.0000
  O2     O2        0.989911118261587    0.275881158763442    0.043373239889227  0.0000
  O3     O3        0.339661908586426    0.164385565352512    0.751336869111015  0.0000
  O3     O3        0.704890152938086    0.146707606964652    0.236694387174786  0.0000
  O3     O3        0.705979488943128    0.834030070988018    0.249882098269142  0.0000
  O2     O2        0.334299057508442    0.830306349378225    0.768599815227411  0.0000
  O3     O3        0.840562084155810    0.660171210078905    0.760461726950347  0.0000
  O2     O2        0.218173487153778    0.656210793002673    0.223560866207244  0.0000
  O2     O2        0.211407245469592    0.331463892784026    0.231589519459494  0.0000
  O2     O2        0.833292711636425    0.333545498353134    0.781562271552707  0.0000
  O3     O3        0.364628455070055    0.346104428583267    0.812946655484613  0.0000
  O3     O3        0.689907570024323    0.330449893045307    0.211194037175390  0.0000
  O3     O3        0.682878569894672    0.652230338124034    0.194797617901694  0.0000
  O2     O2        0.376982876622019    0.662005125509661    0.808868972960833  0.0000
  O3     O3        0.890249286771806    0.844714628825745    0.828265811550429  0.0000
  O2     O2        0.176918170142492    0.828171432756018    0.195618057056012  0.0000
  O2     O2        0.172003972735818    0.159252999435553    0.189090147244848  0.0000
  O2     O2        0.891484140717677    0.164210847315785    0.814845245462969  0.0000
  O3     O3        0.211736033924486    0.253479103434319    0.963401122337835  0.0000
  O3     O3        0.732759228244437    0.232710817177592    0.960921250614257  0.0000
  O1     O1        0.724507235365085    0.758021704935265    0.962474022423783  0.0000
  O2     O2        0.224994584409467    0.739576519254615    0.962094862048960  0.0000
  O2     O2        0.467922781233939    0.366912281827290    0.292462459309105  0.0000
  O2     O2        0.577627715108910    0.374020715563300    0.718470648111185  0.0000
  O2     O2        0.584631693234842    0.623733901318484    0.706730462007561  0.0000
  O2     O2        0.472602403631026    0.618752449710934    0.290777559234842  0.0000
  O2     O2        0.964174161070862    0.866257094114339    0.294254422718423  0.0000
  O2     O2        0.088247307503462    0.883314419459792    0.711111609956146  0.0000
  O2     O2        0.093618026402004    0.116789358739671    0.708346203430332  0.0000
  O2     O2        0.963040766495407    0.118453633725364    0.286203424871427  0.0000
  O2     O2        0.341390633310016    0.374809472529086    0.515086256300683  0.0000
  O2     O2        0.703752317482208    0.375350699062892    0.497493987395110  0.0000
  O2     O2        0.711752671510602    0.610042777155499    0.486068144886904  0.0000
  O2     O2        0.343863044326263    0.621906576725381    0.509976039570146  0.0000
  O2     O2        0.847941066288108    0.869944399740435    0.528495084301248  0.0000
  O2     O2        0.207646515267270    0.877412282720022    0.483651329567022  0.0000
  O2     O2        0.207004118356579    0.110143198194562    0.475451964705739  0.0000
  O2     O2        0.851183540319845    0.124590786877129    0.519215336250804  0.0000
  O2     O2        0.294694416400823    0.494604359038622    0.297646756701500  0.0000
  O2     O2        0.759590413564093    0.496292627443410    0.716129604785237  0.0000
  O2     O2        0.797343590019211    0.992559995165036    0.317840809967933  0.0000
  O2     O2        0.278938329053201    0.996882918632131    0.702662133658798  0.0000
  O2     O2        0.406663985260332    0.502043117039380    0.724752734548165  0.0000
  O2     O2        0.640100617792210    0.490599968974238    0.268629657807732  0.0000
  O2     O2        0.907438201455313    0.002204828975219    0.731015614474634  0.0000
  O2     O2        0.131183455389973    0.992180421218655    0.254947953351131  0.0000
