data_c00018.vasp
_audit_creation_method             Generated by GULP
_audit_author_name                 Salvador R. G. Balestra
_symmetry_space_group_name_H-M     'P 1             '
_symmetry_Int_Tables_number        1

loop_
_symmetry_equiv_pos_site_id
_symmetry_equiv_pos_as_xyz
_cell_length_a                       10.2133
_cell_length_b                       15.2123
_cell_length_c                        8.9610
_cell_angle_alpha                   90.1459
_cell_angle_beta                   105.1337
_cell_angle_gamma                   89.5552

loop_
_atom_site_label
_atom_site_type_symbol
_atom_site_fract_x
_atom_site_fract_y
_atom_site_fract_z
_atom_site_charge
  Ge     Ge        0.351599999999962    0.244500000000016    0.893900000000031  0.0000
  Ge     Ge        0.657679323919449    0.252096442101141    0.113798284543027  0.0000
  Ge     Ge        0.646230606565759    0.756593988564388    0.110261317687184  0.0000
  Ge     Ge        0.880642259028324    0.902554375695430    0.698815884465541  0.0000
  Si     Si        0.347545223111051    0.763032461582120    0.891119535159242  0.0000
  Si     Si        0.853121478852850    0.743068721258587    0.904753474636955  0.0000
  Si     Si        0.147588880395666    0.751247492329646    0.102615873478314  0.0000
  Si     Si        0.151374754316719    0.257182867219828    0.111286038414793  0.0000
  Si     Si        0.861539558527677    0.265595117751305    0.904236887385099  0.0000
  Si     Si        0.287172110470069    0.404065078450502    0.331951318498222  0.0000
  Si     Si        0.678057452925171    0.401824818070896    0.682115269199429  0.0000
  Si     Si        0.678979224727968    0.606754004840519    0.678956695694947  0.0000
  Si     Si        0.285460688218464    0.606374801721408    0.331117295058676  0.0000
  Si     Si        0.777151837709908    0.905066507389182    0.336332600142393  0.0000
  Si     Si        0.180297967461921    0.898579598080868    0.663216437311235  0.0000
  Si     Si        0.183692166331990    0.103294870264797    0.665912665378317  0.0000
  Si     Si        0.782302744822326    0.105277579457125    0.343278824492341  0.0000
  Si     Si        0.375593576466740    0.405155793345996    0.691810227271158  0.0000
  Si     Si        0.590446435952205    0.401716114296380    0.328014251463089  0.0000
  Si     Si        0.589465943648863    0.606287833570113    0.327335106057706  0.0000
  Si     Si        0.376111679112331    0.607284343764500    0.688774215881810  0.0000
  Si     Si        0.077556015069828    0.901700794780194    0.309936290957193  0.0000
  Si     Si        0.077811212225859    0.105173291825025    0.311143197439332  0.0000
  Si     Si        0.890312321848242    0.106997233069319    0.702163054196121  0.0000
  O1     O1        0.522523667509958    0.231891343687689    0.963018199246771  0.0000
  O3     O3        0.505959517263474    0.775307069052716    0.961293152858826  0.0000
  O2     O2        0.015315097664325    0.729742926778984    0.966192486143017  0.0000
  O2     O2        0.023002615587752    0.280656831084956    0.968806592331385  0.0000
  O3     O3        0.304968743335788    0.159142181755386    0.764776550610864  0.0000
  O3     O3        0.669226724500061    0.170787761962641    0.251875086161348  0.0000
  O3     O3        0.662433545902575    0.844464433082580    0.234631206907126  0.0000
  O2     O2        0.301791876355459    0.841218087972521    0.768067665321185  0.0000
  O2     O2        0.796748218304289    0.663171053608911    0.788006408372876  0.0000
  O2     O2        0.175257961555384    0.671450108694999    0.225467636951271  0.0000
  O2     O2        0.175436341492358    0.338486586490805    0.232240418308611  0.0000
  O2     O2        0.797376911676011    0.346894269059308    0.794460755409721  0.0000
  O3     O3        0.313150553891500    0.344169446666641    0.797512857491181  0.0000
  O3     O3        0.646843325435124    0.350815485941526    0.204897217472599  0.0000
  O3     O3        0.642490576474904    0.659039923693767    0.205084802050663  0.0000
  O2     O2        0.317654799703171    0.669716661513000    0.800955243533861  0.0000
  O3     O3        0.818460577812748    0.835302189022290    0.816382206640004  0.0000
  O2     O2        0.126432595189509    0.841841398905977    0.187302802881843  0.0000
  O2     O2        0.128637351142961    0.166725365184249    0.193839988885811  0.0000
  O2     O2        0.832069366695466    0.176165627380775    0.804060148230900  0.0000
  O3     O3        0.281178758591921    0.241844003114376    0.047572741080637  0.0000
  O3     O3        0.801509047413371    0.257711552545785    0.049402227468668  0.0000
  O3     O3        0.789675065106417    0.743762815588401    0.047647387635628  0.0000
  O2     O2        0.273273827053256    0.764903955550130    0.028727921664629  0.0000
  O2     O2        0.430024738392922    0.382746604345589    0.294869512675503  0.0000
  O2     O2        0.536321512542975    0.382369653027268    0.723608501235594  0.0000
  O2     O2        0.535614551145372    0.627610218649225    0.716020499289249  0.0000
  O2     O2        0.429790701167130    0.626506875868071    0.299639516518779  0.0000
  O2     O2        0.923614350811962    0.879103880966740    0.308942548806725  0.0000
  O3     O3        0.042792852582294    0.869614102975361    0.700512778921056  0.0000
  O2     O2        0.045093140493121    0.132514949105645    0.708408737948413  0.0000
  O2     O2        0.923568010666320    0.130604859941684    0.304672739462859  0.0000
  O2     O2        0.300338919413747    0.388315557585339    0.512445822628345  0.0000
  O2     O2        0.665269828293088    0.374675860136080    0.504647357304933  0.0000
  O2     O2        0.668653750907851    0.633159013790033    0.502255489213716  0.0000
  O2     O2        0.294521654108015    0.624177201860223    0.511110897591558  0.0000
  O3     O3        0.779475247817470    0.893552701672611    0.513685649580118  0.0000
  O2     O2        0.172488667217225    0.884047661542592    0.481999778007699  0.0000
  O2     O2        0.170633161474139    0.119305303892723    0.484601872396548  0.0000
  O2     O2        0.798691995894706    0.110932481126749    0.526269754223854  0.0000
  O2     O2        0.243237458939981    0.505255145132702    0.288868436770412  0.0000
  O2     O2        0.714951733411510    0.504178610255099    0.707609060178984  0.0000
  O2     O2        0.743007649141188    0.006217131586335    0.286661575579050  0.0000
  O2     O2        0.209123657547714    0.000567610678073    0.705441052482742  0.0000
  O2     O2        0.357319918916571    0.506808315388016    0.733981560849342  0.0000
  O2     O2        0.614132807501401    0.503923713486606    0.304286927834103  0.0000
  O3     O3        0.881994795993033    0.009667261728670    0.764717463392050  0.0000
  O2     O2        0.088300617975654    0.003353210216553    0.262032854382426  0.0000
