data_c00165.vasp
_audit_creation_method             Generated by GULP
_audit_author_name                 Salvador R. G. Balestra
_symmetry_space_group_name_H-M     'P 1             '
_symmetry_Int_Tables_number        1

loop_
_symmetry_equiv_pos_site_id
_symmetry_equiv_pos_as_xyz
_cell_length_a                       10.2346
_cell_length_b                       15.2117
_cell_length_c                        8.9287
_cell_angle_alpha                   89.7415
_cell_angle_beta                   104.7529
_cell_angle_gamma                   89.8926

loop_
_atom_site_label
_atom_site_type_symbol
_atom_site_fract_x
_atom_site_fract_y
_atom_site_fract_z
_atom_site_charge
  Ge     Ge        0.351599999999962    0.244500000000016    0.893900000000031  0.0000
  Ge     Ge        0.650541346079420    0.758265470762702    0.096577403247727  0.0000
  Ge     Ge        0.308126172075613    0.395099273916518    0.331036246480123  0.0000
  Ge     Ge        0.617137909259261    0.392266802764873    0.304553396913629  0.0000
  Si     Si        0.646159096296179    0.234438612379605    0.099988113249965  0.0000
  Si     Si        0.352184926208305    0.756160442138765    0.885392015769527  0.0000
  Si     Si        0.858857505075065    0.743510289566943    0.884177354411401  0.0000
  Si     Si        0.149496750181841    0.742258044450212    0.094160397949392  0.0000
  Si     Si        0.135588087968670    0.259337787904363    0.096390721638618  0.0000
  Si     Si        0.843233121843787    0.248341278968217    0.889137703133072  0.0000
  Si     Si        0.715407093219856    0.399007824232556    0.659810402706774  0.0000
  Si     Si        0.718018633232491    0.598692005157750    0.664498416100265  0.0000
  Si     Si        0.321397759838664    0.605898609667010    0.324671537520536  0.0000
  Si     Si        0.817791676250961    0.898652146350648    0.327314438074763  0.0000
  Si     Si        0.218302249098077    0.898869541499887    0.653126693041223  0.0000
  Si     Si        0.218540808727481    0.100136575668932    0.655842354934860  0.0000
  Si     Si        0.820881346312508    0.101503424741431    0.328429570959734  0.0000
  Si     Si        0.410931418639673    0.402166375408815    0.684557250858254  0.0000
  Si     Si        0.618620952939611    0.599792216342469    0.304640424229040  0.0000
  Si     Si        0.417260103261343    0.604181692872939    0.681629789113964  0.0000
  Si     Si        0.919583041858698    0.898511657198779    0.681515478757706  0.0000
  Si     Si        0.115332036766795    0.898241038036371    0.297717522455978  0.0000
  Si     Si        0.115754884025407    0.100550722019958    0.297762020120205  0.0000
  Si     Si        0.920588799586161    0.100092686672926    0.684430997218601  0.0000
  O3     O3        0.488785164436932    0.214146851485049    0.039404510663800  0.0000
  O3     O3        0.481908671961069    0.778689182945270    0.018653503102674  0.0000
  O2     O2        0.992446926945842    0.721054940380103    0.018712238573555  0.0000
  O2     O2        0.975779240046932    0.269588898761685    0.022706075186796  0.0000
  O3     O3        0.328024059847711    0.165787418913086    0.750993430313495  0.0000
  O2     O2        0.701910053711633    0.162104324436476    0.232765929209682  0.0000
  O3     O3        0.699647255206143    0.842227793946746    0.226788153667554  0.0000
  O2     O2        0.327830815418261    0.833612944171410    0.756630684907698  0.0000
  O2     O2        0.831843283573068    0.663833579841423    0.760579634653499  0.0000
  O2     O2        0.205044904324509    0.667170900538659    0.221163231560853  0.0000
  O3     O3        0.175877498100022    0.336931378161946    0.217922399489624  0.0000
  O2     O2        0.811356013226805    0.332144751574032    0.776138918938268  0.0000
  O3     O3        0.390514751733508    0.344611189505147    0.824094516957232  0.0000
  O3     O3        0.675065723594687    0.329962025451246    0.174767487517113  0.0000
  O3     O3        0.681742058981406    0.660022966105623    0.196076541981091  0.0000
  O2     O2        0.369152752096246    0.664677126608074    0.802874220043435  0.0000
  O2     O2        0.875048084408473    0.835360314356958    0.801578312572867  0.0000
  O2     O2        0.166657822463725    0.836657787996415    0.179384649558228  0.0000
  O2     O2        0.170561090007341    0.164751364008930    0.184454374031982  0.0000
  O2     O2        0.864868835023110    0.161326320451342    0.797962220186941  0.0000
  O3     O3        0.212448881440663    0.263106276396711    0.962090086411174  0.0000
  O2     O2        0.716590068779803    0.228229313125996    0.958478784460538  0.0000
  O3     O3        0.731486340759656    0.756298422845784    0.951973958072570  0.0000
  O2     O2        0.225154691083969    0.745215228305522    0.958409503710890  0.0000
  O1     O1        0.454959922438078    0.359192779179832    0.293976656957517  0.0000
  O2     O2        0.557037866293096    0.386642694521762    0.650489089918759  0.0000
  O2     O2        0.575147741373724    0.622619996290461    0.698912462316906  0.0000
  O2     O2        0.464454220413684    0.631425195442172    0.291005468036490  0.0000
  O2     O2        0.959463650078903    0.875630520206526    0.287076803892191  0.0000
  O2     O2        0.075410777675465    0.881335296919628    0.689600397957693  0.0000
  O2     O2        0.078567372095163    0.119042557843080    0.702785219027966  0.0000
  O2     O2        0.959433907868188    0.123729627079238    0.282596088666007  0.0000
  O3     O3        0.305573082711925    0.380350248428682    0.522887931057741  0.0000
  O3     O3        0.726143096879304    0.382213983232877    0.487356526993044  0.0000
  O2     O2        0.706426985627460    0.608090394320169    0.482261432859648  0.0000
  O2     O2        0.330709285348615    0.622412821594635    0.506337166413913  0.0000
  O2     O2        0.830489981556040    0.879856770676307    0.508498153937100  0.0000
  O2     O2        0.206081895851149    0.881729541125840    0.471912261075102  0.0000
  O2     O2        0.200691444280617    0.116904959391065    0.473487057633089  0.0000
  O2     O2        0.837359127489482    0.120380472415821    0.509325354823397  0.0000
  O3     O3        0.287525825744893    0.505530938415041    0.284302374799483  0.0000
  O2     O2        0.760079165866035    0.498271347775413    0.715478993792861  0.0000
  O2     O2        0.782541310733177    0.000707497728858    0.290314417824975  0.0000
  O2     O2        0.263916181858942    0.999165096487986    0.695023519284143  0.0000
  O2     O2        0.396077183909918    0.504032671708772    0.728078773256871  0.0000
  O3     O3        0.616949435729583    0.500658869225505    0.248543663025899  0.0000
  O2     O2        0.899153381254908    0.999094191060104    0.728219020505007  0.0000
  O2     O2        0.130963322707877    0.999590207189975    0.249967661863045  0.0000
