data_c00130.vasp
_audit_creation_method             Generated by GULP
_audit_author_name                 Salvador R. G. Balestra
_symmetry_space_group_name_H-M     'P 1             '
_symmetry_Int_Tables_number        1

loop_
_symmetry_equiv_pos_site_id
_symmetry_equiv_pos_as_xyz
_cell_length_a                       10.3293
_cell_length_b                       15.2120
_cell_length_c                        8.9157
_cell_angle_alpha                   90.5475
_cell_angle_beta                   104.8528
_cell_angle_gamma                   89.7996

loop_
_atom_site_label
_atom_site_type_symbol
_atom_site_fract_x
_atom_site_fract_y
_atom_site_fract_z
_atom_site_charge
  Ge     Ge        0.351599999999962    0.244500000000016    0.893900000000031  0.0000
  Ge     Ge        0.666840268626816    0.749893973022403    0.098731470701662  0.0000
  Ge     Ge        0.881016627609357    0.738645517306407    0.884939201321168  0.0000
  Ge     Ge        0.210960229925619    0.097778285465364    0.654039358123925  0.0000
  Si     Si        0.647646156166371    0.235737847661071    0.105155902100373  0.0000
  Si     Si        0.373568976550045    0.755550960100903    0.884829894802292  0.0000
  Si     Si        0.174769376740827    0.737580718600809    0.093852820843230  0.0000
  Si     Si        0.136704728181664    0.252248766400515    0.097488176786700  0.0000
  Si     Si        0.846065922284422    0.254043875419366    0.893101155146824  0.0000
  Si     Si        0.307386693159468    0.390620929815648    0.328018615750495  0.0000
  Si     Si        0.700746430132566    0.394541668382492    0.667333931749939  0.0000
  Si     Si        0.705602450442382    0.598147685005092    0.655073775595165  0.0000
  Si     Si        0.309295333341607    0.593787938034805    0.321466617950436  0.0000
  Si     Si        0.806151352735545    0.895015589266255    0.330199229678271  0.0000
  Si     Si        0.200802821351363    0.891633701539800    0.659708162192945  0.0000
  Si     Si        0.812513861008563    0.096454342054369    0.329181810441209  0.0000
  Si     Si        0.405667014850478    0.397949878551021    0.685668553435948  0.0000
  Si     Si        0.605746299900751    0.389423394270101    0.310010927173217  0.0000
  Si     Si        0.605469907278724    0.590786051756952    0.297578307938724  0.0000
  Si     Si        0.410374380484557    0.601782829561442    0.677248757867867  0.0000
  Si     Si        0.908829643928036    0.900644724040507    0.688144627756522  0.0000
  Si     Si        0.099704879058977    0.890203774696166    0.298937955236704  0.0000
  Si     Si        0.107395864691233    0.091802037019509    0.294234353660050  0.0000
  Si     Si        0.911979706482136    0.104505752971465    0.682944201751092  0.0000
  O3     O3        0.492341760466603    0.218968642998839    0.035256708617317  0.0000
  O3     O3        0.528028412117377    0.777631727338663    0.954681258970044  0.0000
  O3     O3        0.049051629209448    0.715931564658365    0.954820603576105  0.0000
  O2     O2        0.981307182767947    0.275774868164078    0.023264081390157  0.0000
  O1     O1        0.334523745229039    0.163684314520800    0.756302505505163  0.0000
  O2     O2        0.701598748436296    0.156920629271162    0.221931742973094  0.0000
  O3     O3        0.690474107234226    0.832270310578962    0.238338902541799  0.0000
  O2     O2        0.314058829799442    0.827680128716928    0.755709321566879  0.0000
  O3     O3        0.823773456262410    0.658302299223770    0.746483054781788  0.0000
  O2     O2        0.199686147509957    0.656949806081915    0.214821632323911  0.0000
  O2     O2        0.194949884814631    0.326156005650189    0.228467048006073  0.0000
  O2     O2        0.816292491100890    0.334603477853832    0.772654335204091  0.0000
  O3     O3        0.352789348649074    0.346266720811299    0.809916384327788  0.0000
  O2     O2        0.666636667221554    0.327711312548917    0.199589015597812  0.0000
  O3     O3        0.652210624861875    0.648037943711718    0.175711588306837  0.0000
  O2     O2        0.356363391561252    0.660788499161383    0.797841700897776  0.0000
  O3     O3        0.852147850698378    0.842170336681467    0.802260658733227  0.0000
  O2     O2        0.150509109504667    0.826359276346211    0.183060165056446  0.0000
  O2     O2        0.149463857222129    0.154959315921529    0.171696475963816  0.0000
  O2     O2        0.856237662679089    0.163744962459302    0.801879398566330  0.0000
  O3     O3        0.212568880085694    0.249497509163600    0.964980921966147  0.0000
  O2     O2        0.723949047315617    0.241629856230031    0.970754557135574  0.0000
  O1     O1        0.805246481394006    0.737543539595264    0.031364813920183  0.0000
  O2     O2        0.302705704821876    0.753656002705332    0.025522197394086  0.0000
  O2     O2        0.447623422555695    0.370045555936153    0.286085109850363  0.0000
  O2     O2        0.560911618011585    0.372382251191496    0.706535376956370  0.0000
  O2     O2        0.566781145941567    0.624763281705524    0.697160530527755  0.0000
  O2     O2        0.449563006353433    0.610274414155473    0.281460115525558  0.0000
  O2     O2        0.945165236972783    0.868196221041195    0.288591440224606  0.0000
  O2     O2        0.060279383801512    0.868490462294242    0.697617838182881  0.0000
  O3     O3        0.061112012938589    0.132609441096590    0.687543007811477  0.0000
  O2     O2        0.957996809854747    0.116724278489184    0.304358107325084  0.0000
  O2     O2        0.322318065902257    0.373855197008768    0.509982507428176  0.0000
  O2     O2        0.686748252449358    0.372511890991780    0.486957845837231  0.0000
  O2     O2        0.689801997539989    0.612222914506468    0.472598202805989  0.0000
  O2     O2        0.324351310948515    0.618866387996239    0.501498975849554  0.0000
  O2     O2        0.820130618193087    0.885667966224335    0.512948128162957  0.0000
  O2     O2        0.187574638878024    0.879830116538576    0.475558755469053  0.0000
  O3     O3        0.207520239060771    0.105859795834272    0.460505938138831  0.0000
  O2     O2        0.816837279466399    0.114790283649299    0.508860577767554  0.0000
  O2     O2        0.265061282660056    0.492020277280723    0.289205544280047  0.0000
  O2     O2        0.738637380364547    0.496483226119121    0.700554182709896  0.0000
  O2     O2        0.771774500294559    0.996018353634968    0.282422973004682  0.0000
  O3     O3        0.241818303258878    0.990180780325075    0.710584597855351  0.0000
  O2     O2        0.393234997026396    0.501101372132052    0.718518040572497  0.0000
  O2     O2        0.625379053124214    0.488539008021706    0.260998271669143  0.0000
  O2     O2        0.909544236865070    0.003151036024738    0.734910837654011  0.0000
  O2     O2        0.112796174629240    0.989805102231979    0.242228467377279  0.0000
