data_c00159.vasp
_audit_creation_method             Generated by GULP
_audit_author_name                 Salvador R. G. Balestra
_symmetry_space_group_name_H-M     'P 1             '
_symmetry_Int_Tables_number        1

loop_
_symmetry_equiv_pos_site_id
_symmetry_equiv_pos_as_xyz
_cell_length_a                       10.3053
_cell_length_b                       15.1845
_cell_length_c                        8.9239
_cell_angle_alpha                   90.5338
_cell_angle_beta                   104.7868
_cell_angle_gamma                   89.5399

loop_
_atom_site_label
_atom_site_type_symbol
_atom_site_fract_x
_atom_site_fract_y
_atom_site_fract_z
_atom_site_charge
  Ge     Ge        0.351599999999962    0.244500000000016    0.893900000000031  0.0000
  Ge     Ge        0.612656887093775    0.758685697153263    0.095977005143663  0.0000
  Ge     Ge        0.283092976863980    0.394045065381773    0.330271162572825  0.0000
  Ge     Ge        0.281644873136887    0.607139660945909    0.320315302398510  0.0000
  Si     Si        0.650510548322258    0.247744224138462    0.099996771484177  0.0000
  Si     Si        0.318190332941539    0.760800859097189    0.890815595581742  0.0000
  Si     Si        0.815870811748827    0.750855231041404    0.877200173918697  0.0000
  Si     Si        0.107300196529750    0.743997868518486    0.088134380687162  0.0000
  Si     Si        0.137687813640261    0.252106385612229    0.099691927190238  0.0000
  Si     Si        0.849541584005585    0.262595616635118    0.888146855333129  0.0000
  Si     Si        0.682670627931453    0.402911931711563    0.665607260427374  0.0000
  Si     Si        0.680884213153778    0.605158226261924    0.652580065023156  0.0000
  Si     Si        0.779865093441893    0.902000608676959    0.325225891147371  0.0000
  Si     Si        0.176003845989939    0.900087094461949    0.657058347556503  0.0000
  Si     Si        0.182035872480064    0.104070417362420    0.655794921174100  0.0000
  Si     Si        0.785097684362385    0.103501662780297    0.325246700283579  0.0000
  Si     Si        0.385310553180655    0.405884625822433    0.693681348554675  0.0000
  Si     Si        0.581914888877584    0.394685489863856    0.310293238042697  0.0000
  Si     Si        0.581492526675762    0.601050581752879    0.299009909506449  0.0000
  Si     Si        0.383889028114213    0.608850126825675    0.681922545211551  0.0000
  Si     Si        0.881047803221896    0.905419194479123    0.683342442779461  0.0000
  Si     Si        0.076817842474525    0.897374268313384    0.301226057740227  0.0000
  Si     Si        0.081118885589189    0.099994684236974    0.300551664637658  0.0000
  Si     Si        0.884850114227481    0.106566501639244    0.681969221766783  0.0000
  O3     O3        0.519015170837669    0.222887762465360    0.971209990917054  0.0000
  O3     O3        0.445857126819354    0.786052747948934    0.024691919221100  0.0000
  O2     O2        0.951204036031582    0.729390844576508    0.006248466860069  0.0000
  O2     O2        0.007379052663146    0.275906564782366    0.962701224069569  0.0000
  O3     O3        0.297288423775052    0.164232200132363    0.754665445332575  0.0000
  O2     O2        0.676088446501497    0.169688035677716    0.225933766919858  0.0000
  O3     O3        0.666001575554050    0.838656093651875    0.235434216547464  0.0000
  O2     O2        0.287902222019726    0.837009996175826    0.761246735217950  0.0000
  O2     O2        0.791276667568606    0.670891663856171    0.752398280078701  0.0000
  O3     O3        0.151070171326303    0.667137407304543    0.209873116488510  0.0000
  O3     O3        0.156846673323317    0.326317981952674    0.230858569242062  0.0000
  O2     O2        0.797992345621351    0.343478842340343    0.772739143790598  0.0000
  O3     O3        0.335560499776785    0.348536409420676    0.815071793690810  0.0000
  O2     O2        0.640835027608066    0.340084395741680    0.187482271489851  0.0000
  O3     O3        0.639259136741804    0.655207117020236    0.179112574966594  0.0000
  O2     O2        0.348589087809060    0.669341935781731    0.813378402406476  0.0000
  O2     O2        0.826054647188635    0.843734186819576    0.796201243577705  0.0000
  O2     O2        0.130187167138611    0.836648169217822    0.182274157825422  0.0000
  O2     O2        0.126736598476290    0.156857964704781    0.174062369841210  0.0000
  O2     O2        0.826712938717670    0.171361945898744    0.791510638201229  0.0000
  O3     O3        0.268025669142229    0.246721908177845    0.035466342542210  0.0000
  O2     O2        0.774103313307083    0.258012746854961    0.023078730034495  0.0000
  O3     O3        0.691084689457282    0.760408304159772    0.949533118767928  0.0000
  O2     O2        0.191494739543191    0.744661620863081    0.960316114358899  0.0000
  O3     O3        0.435203738931761    0.359486411427117    0.300540414761255  0.0000
  O2     O2        0.539102549781009    0.379885492024118    0.695627776375579  0.0000
  O2     O2        0.534742632593656    0.630018741180356    0.673514828492219  0.0000
  O3     O3        0.433116819525669    0.638706136221252    0.289174080556893  0.0000
  O2     O2        0.919901934963312    0.878158130133718    0.283391935855260  0.0000
  O2     O2        0.036052599372982    0.882307782698614    0.698851731741823  0.0000
  O2     O2        0.041330960444404    0.126972753716397    0.696969096688679  0.0000
  O2     O2        0.926862705384600    0.121760265306040    0.289033690548555  0.0000
  O3     O3        0.290821288008383    0.387843622385742    0.524594849940678  0.0000
  O2     O2        0.676278289477255    0.384923280560579    0.484969121853302  0.0000
  O2     O2        0.677354650786973    0.615036208056703    0.472117888782044  0.0000
  O3     O3        0.285344786002337    0.622213938188628    0.514515124372704  0.0000
  O2     O2        0.795931075611615    0.890190703361592    0.508027374498035  0.0000
  O2     O2        0.161402939873256    0.877173336398172    0.476592207203062  0.0000
  O2     O2        0.168795961030567    0.121841108681500    0.474079817003120  0.0000
  O2     O2        0.797959446306088    0.120580546179366    0.506586119639122  0.0000
  O1     O1        0.249491635085039    0.499573993976430    0.269609302381497  0.0000
  O2     O2        0.719253505696033    0.504987162955564    0.706878503115631  0.0000
  O2     O2        0.740337692234639    0.003341434550667    0.280112770819275  0.0000
  O2     O2        0.218598874302504    0.001448484543749    0.691615124491911  0.0000
  O2     O2        0.376776197726487    0.508571236660953    0.736470258759537  0.0000
  O2     O2        0.571177344772558    0.497042919720920    0.260546770963669  0.0000
  O2     O2        0.867849523712309    0.006787354961047    0.733994774084307  0.0000
  O2     O2        0.099226886855256    0.997944875951999    0.260194191447713  0.0000
