data_c00123.vasp
_audit_creation_method             Generated by GULP
_audit_author_name                 Salvador R. G. Balestra
_symmetry_space_group_name_H-M     'P 1             '
_symmetry_Int_Tables_number        1

loop_
_symmetry_equiv_pos_site_id
_symmetry_equiv_pos_as_xyz
_cell_length_a                       10.3102
_cell_length_b                       15.1806
_cell_length_c                        8.9016
_cell_angle_alpha                   90.3669
_cell_angle_beta                   104.7885
_cell_angle_gamma                   89.8008

loop_
_atom_site_label
_atom_site_type_symbol
_atom_site_fract_x
_atom_site_fract_y
_atom_site_fract_z
_atom_site_charge
  Ge     Ge        0.351599999999962    0.244500000000016    0.893900000000031  0.0000
  Ge     Ge        0.638976794787187    0.757201568205949    0.095758363899750  0.0000
  Ge     Ge        0.855207259271123    0.742419517946973    0.886252284325446  0.0000
  Ge     Ge        0.852789726350317    0.266943814301885    0.897311025148519  0.0000
  Si     Si        0.643620471362879    0.247675390677306    0.100948419016547  0.0000
  Si     Si        0.346601135349414    0.766956353523697    0.886030927017950  0.0000
  Si     Si        0.148406990707377    0.748689109868529    0.095985474768525  0.0000
  Si     Si        0.147329875708276    0.257060010597143    0.106785204587440  0.0000
  Si     Si        0.273413964512823    0.403772755774884    0.334892829769106  0.0000
  Si     Si        0.672154779890337    0.400400634361624    0.660393139022150  0.0000
  Si     Si        0.674999346546605    0.607797404555368    0.650925954269271  0.0000
  Si     Si        0.276964824187449    0.603090770054968    0.326439421917611  0.0000
  Si     Si        0.774966288934901    0.903614999680122    0.327538281155508  0.0000
  Si     Si        0.169330315526776    0.900443556851036    0.657872948867196  0.0000
  Si     Si        0.174329693635364    0.106230943061642    0.659094200555559  0.0000
  Si     Si        0.779021833408587    0.104675591771470    0.327752803230700  0.0000
  Si     Si        0.380471594908424    0.405812581691888    0.692873596900653  0.0000
  Si     Si        0.571222998028209    0.398514773146712    0.307218602471317  0.0000
  Si     Si        0.574170196968572    0.599542241506004    0.296982838471903  0.0000
  Si     Si        0.384319769243964    0.610206011588326    0.684417929432921  0.0000
  Si     Si        0.877402460077493    0.904600334469833    0.686488766062290  0.0000
  Si     Si        0.071960039673067    0.900113318862412    0.300328671759746  0.0000
  Si     Si        0.075235249868742    0.102756884988746    0.301945340601318  0.0000
  Si     Si        0.880741355775617    0.108055631977310    0.686398971313431  0.0000
  O3     O3        0.520795105098693    0.222002907091061    0.959086847624218  0.0000
  O3     O3        0.501939417325641    0.787946861353557    0.950878940842984  0.0000
  O3     O3        0.024435646529364    0.723047581860212    0.956624732987273  0.0000
  O3     O3        0.022488840693487    0.283671105127240    0.967952951382358  0.0000
  O3     O3        0.294160640455458    0.162942032432194    0.757879284118182  0.0000
  O2     O2        0.668095168526847    0.169588474506912    0.227737285438873  0.0000
  O3     O3        0.662104417864722    0.839413711163118    0.235093173150896  0.0000
  O2     O2        0.287299532237932    0.842570883615590    0.762093496953686  0.0000
  O3     O3        0.799260071872759    0.660871969812746    0.749543933519361  0.0000
  O2     O2        0.172745890777083    0.671364683135458    0.224080198702283  0.0000
  O2     O2        0.167607252983608    0.334288290269833    0.237394650834672  0.0000
  O3     O3        0.796069040538790    0.350433971296922    0.766796428124896  0.0000
  O3     O3        0.323480450881997    0.347386489433755    0.807802963074922  0.0000
  O2     O2        0.606028603146784    0.336944898244138    0.178132022013467  0.0000
  O3     O3        0.613658515618545    0.655601418254667    0.168038272387223  0.0000
  O2     O2        0.326752534473000    0.671886462208217    0.799118326328572  0.0000
  O3     O3        0.820621026695211    0.844794284773297    0.799188264749467  0.0000
  O2     O2        0.119198704782246    0.839252554397956    0.177305436418043  0.0000
  O2     O2        0.120212227913231    0.164075929278708    0.179724276089252  0.0000
  O3     O3        0.821757335786576    0.167334866029716    0.799389598329255  0.0000
  O3     O3        0.278499015053791    0.243287961560759    0.046072157112478  0.0000
  O3     O3        0.776632511154681    0.266363817646959    0.046679687484588  0.0000
  O1     O1        0.779766385772941    0.741186524603926    0.033813410263629  0.0000
  O2     O2        0.277783018977950    0.764029429234052    0.029192277077431  0.0000
  O2     O2        0.413632684222351    0.390603119207956    0.291411676191981  0.0000
  O2     O2        0.535426743919635    0.376944902617476    0.709812841648750  0.0000
  O2     O2        0.540091202753499    0.635544618149109    0.702494857935940  0.0000
  O2     O2        0.416646307796250    0.611600794027788    0.281381623670822  0.0000
  O2     O2        0.914680837252861    0.883178922897112    0.282283077406997  0.0000
  O2     O2        0.031703015309126    0.875763133589130    0.701535819852389  0.0000
  O2     O2        0.036448976032583    0.134000251266998    0.703026194888346  0.0000
  O2     O2        0.919108343240101    0.121115975624309    0.285095180311330  0.0000
  O2     O2        0.292639419178713    0.387586859218110    0.517464410861662  0.0000
  O2     O2        0.654133653034482    0.372069632587232    0.480487432429570  0.0000
  O2     O2        0.655945161168571    0.629846286667935    0.469489929196314  0.0000
  O2     O2        0.297649528028453    0.625282973296828    0.508366229944880  0.0000
  O2     O2        0.792790422687022    0.889169207787820    0.510054847861549  0.0000
  O2     O2        0.155658104724304    0.879572736368472    0.476181220346565  0.0000
  O2     O2        0.159889878313285    0.123823166031374    0.476736839506871  0.0000
  O2     O2        0.795620183743506    0.123197435536643    0.509498940575844  0.0000
  O2     O2        0.220196887675928    0.503518345753557    0.292723744577753  0.0000
  O2     O2        0.699294335873102    0.504256248354284    0.679158344433503  0.0000
  O2     O2        0.731797245930107    0.004598527294635    0.285230915995732  0.0000
  O2     O2        0.202886101872199    0.002897671214102    0.693175989906120  0.0000
  O2     O2        0.372974189015395    0.509100770368183    0.733169456455093  0.0000
  O2     O2        0.607524872952054    0.497666277499136    0.270728241592279  0.0000
  O2     O2        0.870831615748431    0.006589030608237    0.733120131587738  0.0000
  O2     O2        0.096702079215597    0.001123796604168    0.259448099789332  0.0000
