data_c00127.vasp
_audit_creation_method             Generated by GULP
_audit_author_name                 Salvador R. G. Balestra
_symmetry_space_group_name_H-M     'P 1             '
_symmetry_Int_Tables_number        1

loop_
_symmetry_equiv_pos_site_id
_symmetry_equiv_pos_as_xyz
_cell_length_a                       10.3365
_cell_length_b                       15.2292
_cell_length_c                        8.9155
_cell_angle_alpha                   90.3165
_cell_angle_beta                   104.9876
_cell_angle_gamma                   89.4637

loop_
_atom_site_label
_atom_site_type_symbol
_atom_site_fract_x
_atom_site_fract_y
_atom_site_fract_z
_atom_site_charge
  Ge     Ge        0.351599999999962    0.244500000000016    0.893900000000031  0.0000
  Ge     Ge        0.674253279417261    0.757337549546025    0.104636672446602  0.0000
  Ge     Ge        0.882871037564670    0.743601169272388    0.885843311052531  0.0000
  Ge     Ge        0.310997855956898    0.604985669077215    0.326130711997267  0.0000
  Si     Si        0.649376921476297    0.243491060437007    0.106469959549965  0.0000
  Si     Si        0.379523346852799    0.762104759382474    0.892040880923639  0.0000
  Si     Si        0.175507517401080    0.750665661349081    0.093344881832755  0.0000
  Si     Si        0.142792395943596    0.258360595711702    0.105850946887215  0.0000
  Si     Si        0.852704629694210    0.257866385775965    0.898853746459963  0.0000
  Si     Si        0.308620915973599    0.398779147671122    0.328545295014366  0.0000
  Si     Si        0.703198416255181    0.396355701000436    0.667002760564921  0.0000
  Si     Si        0.709638911930494    0.599713417197616    0.664255743821474  0.0000
  Si     Si        0.808390586684533    0.905730483956031    0.328528825378979  0.0000
  Si     Si        0.202776710672929    0.895893231971403    0.659915095064234  0.0000
  Si     Si        0.212767671899404    0.099524318214812    0.662826875006420  0.0000
  Si     Si        0.815791850974632    0.106977065105222    0.335117471388807  0.0000
  Si     Si        0.408785817342552    0.401791266281466    0.688645340934310  0.0000
  Si     Si        0.605645990459102    0.397114548100373    0.310092482156760  0.0000
  Si     Si        0.611738612353516    0.600697398864575    0.305722653224520  0.0000
  Si     Si        0.414840196712707    0.604805803343811    0.691291961512450  0.0000
  Si     Si        0.909875455394568    0.905011792541595    0.687923844906914  0.0000
  Si     Si        0.102808967293362    0.899499057232849    0.301399775506998  0.0000
  Si     Si        0.109987775222057    0.101790682331953    0.307159811799529  0.0000
  Si     Si        0.919181247368252    0.106816014591335    0.692049489005239  0.0000
  O3     O3        0.497388208650088    0.220324997844760    0.028898199449120  0.0000
  O3     O3        0.533999896021628    0.783474894107985    0.960094726397562  0.0000
  O3     O3        0.053535583222565    0.729183030481554    0.949302788711633  0.0000
  O2     O2        0.987260837774547    0.281260651089521    0.028238977903113  0.0000
  O3     O3        0.328732945635752    0.158509901168910    0.762491503759012  0.0000
  O2     O2        0.702836232878240    0.170427861999405    0.236856506447748  0.0000
  O3     O3        0.693655205715334    0.843222402662850    0.236511731966026  0.0000
  O2     O2        0.317751832252472    0.833676466690741    0.760309631704173  0.0000
  O3     O3        0.828424544479970    0.657268571467378    0.760607666599765  0.0000
  O3     O3        0.191093776742536    0.673606890357961    0.218036032539040  0.0000
  O2     O2        0.196933897886680    0.332783361954401    0.234784089321944  0.0000
  O2     O2        0.818855658839561    0.335686707916813    0.772316443736620  0.0000
  O3     O3        0.353019094326318    0.344071138241357    0.803479528080491  0.0000
  O2     O2        0.660558813987546    0.338523845193122    0.190044189893095  0.0000
  O3     O3        0.669985641154214    0.656578258580840    0.190248188259803  0.0000
  O2     O2        0.365793306968235    0.665087110559325    0.814582816171942  0.0000
  O3     O3        0.847271356267217    0.844000958758003    0.792539401203534  0.0000
  O2     O2        0.152159063132972    0.841576761576441    0.177217452680172  0.0000
  O2     O2        0.160818436651194    0.163359724841547    0.189488867930420  0.0000
  O2     O2        0.868640771793319    0.167134882320916    0.812439544954641  0.0000
  O3     O3        0.219102465576499    0.255763744282824    0.973902786623629  0.0000
  O2     O2        0.731695505541794    0.245562708567431    0.977624735157332  0.0000
  O1     O1        0.812261061747665    0.745596116428411    0.036280274180144  0.0000
  O2     O2        0.308472103165869    0.761747409704514    0.032453752351476  0.0000
  O2     O2        0.450388764890358    0.374328114392075    0.292976782472714  0.0000
  O2     O2        0.562106982122920    0.372989708040514    0.701637233899143  0.0000
  O2     O2        0.569742345519800    0.627998645761953    0.701536183643545  0.0000
  O3     O3        0.460382217561297    0.631167966676613    0.288061529307499  0.0000
  O2     O2        0.946431561521091    0.881207692023533    0.282983757671496  0.0000
  O2     O2        0.064421277655075    0.876351030748577    0.704149015796566  0.0000
  O2     O2        0.074069428271638    0.126721905065272    0.703999332169776  0.0000
  O2     O2        0.956031913038333    0.126002909704468    0.295830288236968  0.0000
  O2     O2        0.321182336870163    0.389362496914356    0.511788022111020  0.0000
  O2     O2        0.692793490790912    0.378839138615954    0.485472380148805  0.0000
  O2     O2        0.697329651946911    0.614976569287247    0.482863026413284  0.0000
  O3     O3        0.323063396471226    0.621504856985343    0.520641976995145  0.0000
  O2     O2        0.826773500138659    0.891699630745868    0.510747981579907  0.0000
  O2     O2        0.186581746807273    0.877227742173469    0.477153614015389  0.0000
  O2     O2        0.199165644886881    0.117727290834502    0.481451464478591  0.0000
  O2     O2        0.830117307518448    0.123906802013585    0.517309610872411  0.0000
  O3     O3        0.267952951458726    0.497445413786032    0.277238341594053  0.0000
  O2     O2        0.739857375920066    0.497505742736565    0.707463068235855  0.0000
  O2     O2        0.771467517691043    0.007436323404141    0.288361694661391  0.0000
  O2     O2        0.244169281962873    0.996756983402129    0.698389864491524  0.0000
  O2     O2        0.403480325990602    0.503572991022852    0.737184591332257  0.0000
  O2     O2        0.616412740880903    0.497732348313397    0.263721484721765  0.0000
  O2     O2        0.903152229428736    0.006273850259042    0.738680334615669  0.0000
  O2     O2        0.124151632605631    0.000528311447383    0.260866717555782  0.0000
