data_c00198.vasp
_audit_creation_method             Generated by GULP
_audit_author_name                 Salvador R. G. Balestra
_symmetry_space_group_name_H-M     'P 1             '
_symmetry_Int_Tables_number        1

loop_
_symmetry_equiv_pos_site_id
_symmetry_equiv_pos_as_xyz
_cell_length_a                       10.1983
_cell_length_b                       15.2167
_cell_length_c                        8.9604
_cell_angle_alpha                   89.8872
_cell_angle_beta                   105.1282
_cell_angle_gamma                   89.6565

loop_
_atom_site_label
_atom_site_type_symbol
_atom_site_fract_x
_atom_site_fract_y
_atom_site_fract_z
_atom_site_charge
  Ge     Ge        0.351599999999962    0.244500000000016    0.893900000000031  0.0000
  Ge     Ge        0.654374888325038    0.755922279300719    0.105264095120890  0.0000
  Ge     Ge        0.224945384035450    0.892569310734863    0.659260182761805  0.0000
  Ge     Ge        0.622136443271066    0.394288427683295    0.308442849944229  0.0000
  Si     Si        0.652482690567787    0.236012393861341    0.105553987460483  0.0000
  Si     Si        0.354746623047106    0.746314680356059    0.891700974251817  0.0000
  Si     Si        0.854807342436160    0.741026221453714    0.885854792235755  0.0000
  Si     Si        0.148580155105708    0.740350353264871    0.093395804794820  0.0000
  Si     Si        0.144282301338971    0.257634324331745    0.105652320436694  0.0000
  Si     Si        0.852310170070723    0.245405279275483    0.898296992991964  0.0000
  Si     Si        0.314497840289272    0.397153459507635    0.323909727824974  0.0000
  Si     Si        0.714826842543581    0.392369093115227    0.671908445655304  0.0000
  Si     Si        0.716702308024054    0.593181908702530    0.673621542891818  0.0000
  Si     Si        0.323293139686322    0.603352381056812    0.324867910384731  0.0000
  Si     Si        0.819512229926389    0.899815468731160    0.328954720610995  0.0000
  Si     Si        0.225315366558668    0.096140115280783    0.665762550220735  0.0000
  Si     Si        0.823991310842244    0.102747208630199    0.337690901402076  0.0000
  Si     Si        0.408599692888578    0.396127352597212    0.677272057549478  0.0000
  Si     Si        0.625926744650888    0.598485483443217    0.313294939264990  0.0000
  Si     Si        0.413977265267924    0.599863104660032    0.679286601250725  0.0000
  Si     Si        0.918527438373282    0.893272248368538    0.682263892785407  0.0000
  Si     Si        0.118391164954036    0.897812766923245    0.297169146190241  0.0000
  Si     Si        0.119765680839633    0.099004648038113    0.307049721019901  0.0000
  Si     Si        0.925369712768789    0.097088489853964    0.691617589398873  0.0000
  O3     O3        0.493147950087012    0.222193330958718    0.040401517236026  0.0000
  O3     O3        0.481379012242869    0.761477589395933    0.034719192040929  0.0000
  O2     O2        0.989869621408220    0.721069374462364    0.021360462153651  0.0000
  O2     O2        0.982843378664983    0.268734638191742    0.035673736598812  0.0000
  O3     O3        0.335017783342365    0.163580386527535    0.756057536617736  0.0000
  O2     O2        0.704528969251470    0.163153816099955    0.238694852410577  0.0000
  O3     O3        0.700400145038173    0.847007861464824    0.219281600965028  0.0000
  O3     O3        0.345520960550701    0.823025387596112    0.767029204903328  0.0000
  O2     O2        0.831295555809796    0.658365688118249    0.768687188825010  0.0000
  O2     O2        0.207121995914960    0.663645548262674    0.217205013048277  0.0000
  O2     O2        0.193506144780430    0.341129969871439    0.215918169190895  0.0000
  O2     O2        0.822691532317087    0.326793378603727    0.779443641470549  0.0000
  O3     O3        0.359439840575074    0.343894669943638    0.804261610125377  0.0000
  O3     O3        0.683047334999063    0.330674456902476    0.183903010016891  0.0000
  O3     O3        0.695726286712294    0.663486937820255    0.219924192318428  0.0000
  O2     O2        0.360860907790811    0.654575480406351    0.803686107864398  0.0000
  O2     O2        0.863623161623838    0.831981561004639    0.797586595931969  0.0000
  O2     O2        0.165457313655612    0.835289105146251    0.176328215961175  0.0000
  O2     O2        0.178276212263041    0.166687987344210    0.203476939582692  0.0000
  O2     O2        0.874494643112878    0.156060107895705    0.812607986160465  0.0000
  O3     O3        0.212642800502123    0.252578081696475    0.966225321373797  0.0000
  O2     O2        0.724364704897914    0.227719213880342    0.966665676132399  0.0000
  O3     O3        0.727371500781661    0.751642329629264    0.954903671504580  0.0000
  O2     O2        0.221212838379910    0.743709170719737    0.955591576465466  0.0000
  O3     O3        0.453880495569454    0.367686831620314    0.288977040467058  0.0000
  O2     O2        0.564218829128373    0.370738421258909    0.686660853918228  0.0000
  O2     O2        0.572604442487703    0.620524959972876    0.702914205305012  0.0000
  O2     O2        0.467948543389864    0.625810074125292    0.293590021963554  0.0000
  O2     O2        0.964345065545777    0.873961193340786    0.298360010664649  0.0000
  O3     O3        0.070733859975892    0.866260263695191    0.690477688654598  0.0000
  O2     O2        0.081582399980846    0.118387126764996    0.702863142636131  0.0000
  O2     O2        0.965436953736287    0.126758293276561    0.299616653388181  0.0000
  O2     O2        0.319483952059233    0.377320088396520    0.502742765194508  0.0000
  O3     O3        0.717731587850580    0.379990047716646    0.496244878703987  0.0000
  O2     O2        0.707946545974873    0.600989445267118    0.493087673353892  0.0000
  O2     O2        0.330048044940523    0.623713459977849    0.504026051393803  0.0000
  O2     O2        0.825935918802095    0.880231246046129    0.507754601210533  0.0000
  O3     O3        0.216910683327746    0.883024645572103    0.465399791178654  0.0000
  O2     O2        0.210292251633954    0.103189581193742    0.482512459105648  0.0000
  O2     O2        0.835042375737571    0.118320691376544    0.518561212717733  0.0000
  O2     O2        0.288975773084217    0.501041620960605    0.288612606326797  0.0000
  O2     O2        0.753962254858003    0.492551444274602    0.726490623219834  0.0000
  O2     O2        0.788249941664456    0.002345130473363    0.293228601964679  0.0000
  O3     O3        0.270038016133405    0.998098109884783    0.719297449951148  0.0000
  O2     O2        0.395173510571950    0.498433715815479    0.714327082417415  0.0000
  O3     O3        0.631898934799853    0.501141179817663    0.250552004456436  0.0000
  O2     O2        0.910598397837107    0.994935254539547    0.732491571222635  0.0000
  O2     O2        0.125843431612468    0.999599510304495    0.245007141799467  0.0000
