data_c00135.vasp
_audit_creation_method             Generated by GULP
_audit_author_name                 Salvador R. G. Balestra
_symmetry_space_group_name_H-M     'P 1             '
_symmetry_Int_Tables_number        1

loop_
_symmetry_equiv_pos_site_id
_symmetry_equiv_pos_as_xyz
_cell_length_a                       10.2628
_cell_length_b                       15.1964
_cell_length_c                        8.9315
_cell_angle_alpha                   89.9568
_cell_angle_beta                   104.9520
_cell_angle_gamma                   89.4666

loop_
_atom_site_label
_atom_site_type_symbol
_atom_site_fract_x
_atom_site_fract_y
_atom_site_fract_z
_atom_site_charge
  Ge     Ge        0.351599999999962    0.244500000000016    0.893900000000031  0.0000
  Ge     Ge        0.648256510891302    0.763821188429303    0.103456531513003  0.0000
  Ge     Ge        0.861657962149868    0.745713928755790    0.890872032177788  0.0000
  Ge     Ge        0.386797074702494    0.609961135395581    0.691623495215733  0.0000
  Si     Si        0.650100465120778    0.254458498634838    0.102635116207713  0.0000
  Si     Si        0.353847396850042    0.769482693973445    0.893531548723510  0.0000
  Si     Si        0.155741520816916    0.756629916695068    0.099283241984101  0.0000
  Si     Si        0.144844752412131    0.262178830085519    0.107229426205548  0.0000
  Si     Si        0.853842879990427    0.267374464421682    0.896587318381137  0.0000
  Si     Si        0.282619459151758    0.408638398580683    0.325677598741961  0.0000
  Si     Si        0.676954565374743    0.399665599166769    0.663400817821056  0.0000
  Si     Si        0.687198494729899    0.607101610930951    0.664314862776690  0.0000
  Si     Si        0.283109283038198    0.608948901257420    0.330716090654513  0.0000
  Si     Si        0.777262315745280    0.912435327046192    0.329871587414189  0.0000
  Si     Si        0.173004622382737    0.899996705976543    0.659427858837275  0.0000
  Si     Si        0.184328279086263    0.104646573648587    0.664843601910251  0.0000
  Si     Si        0.785631522726695    0.112740212623900    0.336611267982714  0.0000
  Si     Si        0.382054128663668    0.403284244449791    0.685997571197808  0.0000
  Si     Si        0.582756747721037    0.403840661365739    0.308645260257882  0.0000
  Si     Si        0.586572380628219    0.606374012580454    0.312350450092141  0.0000
  Si     Si        0.879604657444696    0.908567085186701    0.689309726535193  0.0000
  Si     Si        0.074948009236166    0.905648852974299    0.303075062444173  0.0000
  Si     Si        0.084281902750237    0.108046502020389    0.310910463845792  0.0000
  Si     Si        0.888696107091710    0.111330818104307    0.692504010896859  0.0000
  O3     O3        0.521498096705076    0.228310355313150    0.970625352857025  0.0000
  O3     O3        0.511194631228547    0.788987500720034    0.952328364951967  0.0000
  O3     O3        0.033595153266543    0.732144733753067    0.957197700389540  0.0000
  O2     O2        0.011040443658942    0.285557695244366    0.973159447380674  0.0000
  O3     O3        0.305322892505440    0.156571415926630    0.770855287207666  0.0000
  O2     O2        0.677441926692232    0.179889685966441    0.235925749834106  0.0000
  O3     O3        0.664946639199822    0.848594978132936    0.235840008279868  0.0000
  O2     O2        0.292196715543612    0.839829347751952    0.758380401051715  0.0000
  O3     O3        0.812204226523526    0.658295940466303    0.766975242062395  0.0000
  O2     O2        0.180721923356836    0.676499375104556    0.221594510079226  0.0000
  O2     O2        0.170803709901780    0.342702266924431    0.229398038533986  0.0000
  O2     O2        0.799085749630397    0.344316782100912    0.771671222628544  0.0000
  O3     O3        0.317406101900147    0.340877875955475    0.788689758420988  0.0000
  O2     O2        0.628971856596766    0.346836278978086    0.181246691185784  0.0000
  O3     O3        0.624079377093345    0.664197937961823    0.184157919581241  0.0000
  O3     O3        0.328901992791388    0.673011481962465    0.820263462069005  0.0000
  O3     O3        0.819655716921058    0.846047281627627    0.795492351820994  0.0000
  O2     O2        0.121868200940344    0.845456419326956    0.180433135444590  0.0000
  O2     O2        0.130198851178083    0.170576113372567    0.191375627554164  0.0000
  O2     O2        0.835524062305599    0.173511008714215    0.809238746522879  0.0000
  O3     O3        0.271504326005965    0.248716008047213    0.038891207575753  0.0000
  O2     O2        0.777079990342688    0.265206543373038    0.030800010845080  0.0000
  O1     O1        0.789372914210555    0.746834313029675    0.041416520472334  0.0000
  O2     O2        0.287762230783783    0.775686783763079    0.038704021163381  0.0000
  O2     O2        0.425325620651354    0.386114980209760    0.290504224543839  0.0000
  O2     O2        0.536826766395297    0.371919125826074    0.699854474606682  0.0000
  O3     O3        0.551149917345967    0.640955305372055    0.703938615243311  0.0000
  O2     O2        0.433842495034192    0.625616858743481    0.317422987022882  0.0000
  O2     O2        0.916393388464894    0.890893321415404    0.283014452689323  0.0000
  O2     O2        0.034688570375346    0.878494289039344    0.705228821195034  0.0000
  O2     O2        0.044735017431367    0.133083978377730    0.705252554585780  0.0000
  O2     O2        0.928906364391105    0.127773157305379    0.300999938011059  0.0000
  O2     O2        0.295515493612482    0.397864858414435    0.507662317260560  0.0000
  O2     O2        0.668631519165220    0.380140233209274    0.483083568841538  0.0000
  O2     O2        0.680655353308445    0.625780704202355    0.483956660526214  0.0000
  O3     O3        0.282650096918973    0.623339611783130    0.507207711113796  0.0000
  O2     O2        0.795917424163078    0.897059464224107    0.511894638575648  0.0000
  O2     O2        0.156805272425437    0.880583977489996    0.477812304101176  0.0000
  O2     O2        0.173437986977218    0.125897689820747    0.484729655813762  0.0000
  O2     O2        0.798691089786322    0.128607702442931    0.518197920033954  0.0000
  O2     O2        0.238601849958032    0.509223937157523    0.277206858300169  0.0000
  O2     O2        0.701450884000658    0.502595847257293    0.697894188913691  0.0000
  O2     O2        0.735311883746460    0.013990182806988    0.289715286102419  0.0000
  O2     O2        0.210620717875705    0.001125229663159    0.695640163787829  0.0000
  O3     O3        0.381724211883738    0.501851956130921    0.746360831650231  0.0000
  O2     O2        0.604996738691126    0.504737384038539    0.269962448607672  0.0000
  O2     O2        0.873909307528363    0.010247842342004    0.740070968311742  0.0000
  O2     O2        0.102796042289969    0.006655072741056    0.265716963479656  0.0000
