data_c00150.vasp
_audit_creation_method             Generated by GULP
_audit_author_name                 Salvador R. G. Balestra
_symmetry_space_group_name_H-M     'P 1             '
_symmetry_Int_Tables_number        1

loop_
_symmetry_equiv_pos_site_id
_symmetry_equiv_pos_as_xyz
_cell_length_a                       10.2245
_cell_length_b                       15.2042
_cell_length_c                        8.9521
_cell_angle_alpha                   89.9079
_cell_angle_beta                   105.0115
_cell_angle_gamma                   90.0370

loop_
_atom_site_label
_atom_site_type_symbol
_atom_site_fract_x
_atom_site_fract_y
_atom_site_fract_z
_atom_site_charge
  Ge     Ge        0.351599999999962    0.244500000000016    0.893900000000031  0.0000
  Ge     Ge        0.636616008656974    0.763128734597805    0.092322629514556  0.0000
  Ge     Ge        0.136251423226685    0.739466692883190    0.090668536374470  0.0000
  Ge     Ge        0.618697184599001    0.396765064295987    0.305177470324440  0.0000
  Si     Si        0.651216553385878    0.239172564157261    0.101658875394712  0.0000
  Si     Si        0.340433052127681    0.752090819974988    0.879825520173469  0.0000
  Si     Si        0.839861191571405    0.748139288539045    0.880522629683756  0.0000
  Si     Si        0.142206592113195    0.259851653079658    0.102127165023737  0.0000
  Si     Si        0.850936438960081    0.252114083229091    0.894373870801816  0.0000
  Si     Si        0.316236819173636    0.394626954004348    0.327531188584873  0.0000
  Si     Si        0.716947273059435    0.399270777638138    0.666899281370030  0.0000
  Si     Si        0.712822813988009    0.599717051946773    0.660686232475590  0.0000
  Si     Si        0.316277462877948    0.601947943443509    0.323161965892736  0.0000
  Si     Si        0.813989940224309    0.901228095822283    0.323852673632688  0.0000
  Si     Si        0.212477012255495    0.897544703791444    0.654310452758240  0.0000
  Si     Si        0.220614952968890    0.097966114584456    0.661359509535963  0.0000
  Si     Si        0.821319386608939    0.105679968753080    0.333017110410871  0.0000
  Si     Si        0.410782403680537    0.399171320116178    0.679850244872882  0.0000
  Si     Si        0.613270574426439    0.603222500023166    0.300871598502090  0.0000
  Si     Si        0.411774648734895    0.601651460989251    0.677299168751025  0.0000
  Si     Si        0.913264137766130    0.900042217566364    0.679139863386092  0.0000
  Si     Si        0.111386072375006    0.900046231420832    0.296755862986181  0.0000
  Si     Si        0.116773099654953    0.102765069962511    0.305132316415484  0.0000
  Si     Si        0.920382347931600    0.102470145951991    0.686530439298686  0.0000
  O3     O3        0.492843261797469    0.221924909268505    0.038943499817408  0.0000
  O3     O3        0.464076254525351    0.775761194477365    0.023055551668124  0.0000
  O3     O3        0.963940211228705    0.725004887835028    0.023765100084641  0.0000
  O2     O2        0.982011254691150    0.274040650350873    0.031801141944261  0.0000
  O3     O3        0.333112199546004    0.160759036248651    0.760215270042747  0.0000
  O2     O2        0.703307296266037    0.165322203927853    0.232241231649670  0.0000
  O3     O3        0.691301025600669    0.848862115257429    0.218692501282332  0.0000
  O2     O2        0.321605131315390    0.830000372592289    0.752412735698676  0.0000
  O2     O2        0.821266093151223    0.668493173135273    0.756621947808185  0.0000
  O3     O3        0.192915042354891    0.654482921715407    0.218494529769671  0.0000
  O2     O2        0.192943452210951    0.340142822426604    0.219881529300406  0.0000
  O2     O2        0.822960881342520    0.334752143105180    0.778073203868322  0.0000
  O3     O3        0.367410617635940    0.343697565903326    0.807395720901090  0.0000
  O3     O3        0.680324134829714    0.334220866752965    0.179726327516912  0.0000
  O3     O3        0.675137036919756    0.666529986325658    0.196274586713585  0.0000
  O2     O2        0.366348195728528    0.660881281920239    0.801483640729199  0.0000
  O2     O2        0.866727376662712    0.838944684625071    0.800408887009086  0.0000
  O3     O3        0.169255541711947    0.839537567019564    0.185719347135270  0.0000
  O2     O2        0.173208674992199    0.166961694140463    0.193970703126311  0.0000
  O2     O2        0.872266941045087    0.163550599602169    0.806346043989145  0.0000
  O3     O3        0.212153995285486    0.257238742180954    0.963642195069512  0.0000
  O2     O2        0.722846435165324    0.233614779129103    0.961977241479939  0.0000
  O3     O3        0.706477424076356    0.762337368852790    0.938163405516949  0.0000
  O3     O3        0.206539009935421    0.739180805177571    0.937135323014768  0.0000
  O3     O3        0.454063847392614    0.363638720878320    0.291554785265617  0.0000
  O2     O2        0.566557559072426    0.380575356804042    0.683795111981246  0.0000
  O2     O2        0.569266066958283    0.619982226720085    0.694541085457626  0.0000
  O2     O2        0.456691920292014    0.631430588913673    0.285429465812681  0.0000
  O2     O2        0.953508190724564    0.875959244057249    0.279967816799610  0.0000
  O2     O2        0.070396302747708    0.881619816247092    0.694869177261493  0.0000
  O2     O2        0.078900908533009    0.118272043872317    0.702876526195931  0.0000
  O2     O2        0.961709625309665    0.128649445511889    0.292314722753954  0.0000
  O2     O2        0.320717354492705    0.376771479449281    0.507013514959730  0.0000
  O3     O3        0.718301021312669    0.383800692040406    0.491246699828819  0.0000
  O2     O2        0.700302048097541    0.609992516261439    0.479082850337896  0.0000
  O2     O2        0.325604760167483    0.622531331880335    0.502964294405897  0.0000
  O2     O2        0.827907740843619    0.879748088199945    0.504437535733747  0.0000
  O2     O2        0.196492852668539    0.882623511394915    0.472981316061246  0.0000
  O2     O2        0.205467835383187    0.115271300736705    0.480194573001305  0.0000
  O2     O2        0.834643380136677    0.125754110362364    0.513095714976556  0.0000
  O2     O2        0.295396931259999    0.498097573105055    0.291114779438808  0.0000
  O2     O2        0.759456814318257    0.500366843287498    0.713314526398197  0.0000
  O2     O2        0.784410420108983    0.004456338913332    0.295218387091655  0.0000
  O2     O2        0.262890408103596    0.996640287655141    0.700604481974348  0.0000
  O2     O2        0.390018640551125    0.500834947713499    0.718362399398738  0.0000
  O3     O3        0.619644676011361    0.504136216232759    0.245456960099702  0.0000
  O2     O2        0.893258991572040    0.001166902589389    0.723487110875324  0.0000
  O2     O2        0.125716181346535    0.002097407969233    0.252537392285854  0.0000
