data_c00158.vasp
_audit_creation_method             Generated by GULP
_audit_author_name                 Salvador R. G. Balestra
_symmetry_space_group_name_H-M     'P 1             '
_symmetry_Int_Tables_number        1

loop_
_symmetry_equiv_pos_site_id
_symmetry_equiv_pos_as_xyz
_cell_length_a                       10.3487
_cell_length_b                       15.2155
_cell_length_c                        8.9069
_cell_angle_alpha                   90.5133
_cell_angle_beta                   104.9229
_cell_angle_gamma                   89.7747

loop_
_atom_site_label
_atom_site_type_symbol
_atom_site_fract_x
_atom_site_fract_y
_atom_site_fract_z
_atom_site_charge
  Ge     Ge        0.351599999999962    0.244500000000016    0.893900000000031  0.0000
  Ge     Ge        0.630302261358771    0.747758313330240    0.091765560412813  0.0000
  Ge     Ge        0.286166199258344    0.392401434324630    0.330614408585428  0.0000
  Ge     Ge        0.695741785882174    0.599856469985821    0.655050040373194  0.0000
  Si     Si        0.649393115162500    0.234068260824210    0.100359222893385  0.0000
  Si     Si        0.332511431791411    0.758190286973536    0.885308737549052  0.0000
  Si     Si        0.844553307605905    0.741615941244684    0.885647816809688  0.0000
  Si     Si        0.133308167145120    0.740593234876169    0.096687435452334  0.0000
  Si     Si        0.137350232687572    0.250642404360685    0.100020236269124  0.0000
  Si     Si        0.848595904325050    0.251664628300747    0.888978783759991  0.0000
  Si     Si        0.684657956621569    0.393478154669692    0.667557708620532  0.0000
  Si     Si        0.297244978462694    0.598779988798747    0.318112479895571  0.0000
  Si     Si        0.796413267611116    0.889243795786836    0.330450054680013  0.0000
  Si     Si        0.192261621063320    0.900837473966814    0.661734620756709  0.0000
  Si     Si        0.185491505300820    0.103013387859294    0.655216831286152  0.0000
  Si     Si        0.789642272879563    0.091419978054161    0.323932012167768  0.0000
  Si     Si        0.390032290229401    0.403794649666432    0.693555175743580  0.0000
  Si     Si        0.586060399535264    0.385043604898948    0.309705804226818  0.0000
  Si     Si        0.591875402944540    0.588463419311671    0.292113343367955  0.0000
  Si     Si        0.395842345823042    0.607214718133493    0.675960259622230  0.0000
  Si     Si        0.898005653619548    0.897070511169567    0.687878431677904  0.0000
  Si     Si        0.092017253617574    0.893947392680783    0.304619288548043  0.0000
  Si     Si        0.083898942115823    0.095186994956323    0.297788513598346  0.0000
  Si     Si        0.889887005408347    0.098310380795710    0.681046953357623  0.0000
  O3     O3        0.514894039705962    0.214326539064819    0.972793022943186  0.0000
  O3     O3        0.467008946710924    0.777934813070542    0.012875833020711  0.0000
  O2     O2        0.977734987715553    0.721224729932754    0.019761234359547  0.0000
  O2     O2        0.004168270537666    0.271034451777295    0.965907685976240  0.0000
  O3     O3        0.295277996131159    0.168886400835536    0.746991985301925  0.0000
  O2     O2        0.676036852662886    0.152895304272728    0.220284358611285  0.0000
  O3     O3        0.686626649133035    0.823370335738346    0.238676163628274  0.0000
  O2     O2        0.305867185633101    0.839361281271460    0.765379790033457  0.0000
  O3     O3        0.823770242268786    0.665480615344238    0.756733594421248  0.0000
  O2     O2        0.186643418629455    0.662559322350337    0.215977066976957  0.0000
  O3     O3        0.158135732328454    0.326776739386840    0.228936881323161  0.0000
  O2     O2        0.795261358479498    0.329696886594215    0.769684844322226  0.0000
  O3     O3        0.341242951272642    0.349708716176131    0.819960536967461  0.0000
  O2     O2        0.642712740496342    0.324094767139025    0.194126171117875  0.0000
  O3     O3        0.640655554287838    0.642548047295090    0.165699209014668  0.0000
  O2     O2        0.339198899238403    0.668162087610797    0.791549563495971  0.0000
  O2     O2        0.852177908209661    0.836590729500173    0.809626457555658  0.0000
  O2     O2        0.150293303597956    0.832386781426597    0.191326950181474  0.0000
  O2     O2        0.129725709914346    0.155667253529796    0.176040359992725  0.0000
  O2     O2        0.831612849540871    0.159870460816695    0.794341605893842  0.0000
  O3     O3        0.265446688943417    0.246838208698832    0.032633423590405  0.0000
  O2     O2        0.770966377820241    0.245516148239751    0.021394178878896  0.0000
  O3     O3        0.716455915546675    0.745420687523946    0.953032559745319  0.0000
  O2     O2        0.210936181030544    0.746742399500392    0.964270479332327  0.0000
  O3     O3        0.435960752109457    0.356717753871382    0.299653597610156  0.0000
  O2     O2        0.539422208888360    0.371420508701834    0.693093330313332  0.0000
  O3     O3        0.545941528045828    0.635542265757286    0.685998342305869  0.0000
  O2     O2        0.442487694754589    0.620839570822238    0.292592207478488  0.0000
  O2     O2        0.937358310180277    0.870067581338842    0.289435141666147  0.0000
  O2     O2        0.052968432956239    0.879141210919783    0.700700058139664  0.0000
  O2     O2        0.044545794486407    0.122190345988535    0.696230001174152  0.0000
  O2     O2        0.928936359874482    0.113116250108152    0.284968327550606  0.0000
  O3     O3        0.292205892078528    0.386445144599678    0.524940214132231  0.0000
  O2     O2        0.678088326600510    0.378544444514473    0.485660566945105  0.0000
  O3     O3        0.689714759083142    0.605812767192690    0.460724582149191  0.0000
  O2     O2        0.303800235944864    0.613714890622042    0.500008538228306  0.0000
  O2     O2        0.812009210256917    0.875503993052803    0.513637017681358  0.0000
  O2     O2        0.179227048845644    0.880425830829721    0.480686478877846  0.0000
  O2     O2        0.169896737066175    0.116752851019599    0.472029925765331  0.0000
  O2     O2        0.802675899093293    0.111832499671086    0.504980068324872  0.0000
  O3     O3        0.256694931267966    0.499706789838686    0.269790929561478  0.0000
  O3     O3        0.725211309649245    0.492550732871788    0.715875823001456  0.0000
  O2     O2        0.751680261032106    0.989635534714189    0.286174701512604  0.0000
  O2     O2        0.230223952184176    0.002621773474920    0.699493058710955  0.0000
  O2     O2        0.394034343696934    0.507272739176495    0.733867907582120  0.0000
  O2     O2        0.587871071481630    0.484985056499951    0.251799386462976  0.0000
  O2     O2        0.876521439715129    0.998098599835158    0.731447873512314  0.0000
  O2     O2        0.105382972126997    0.994159037832562    0.254217727915118  0.0000
