data_c00161.vasp
_audit_creation_method             Generated by GULP
_audit_author_name                 Salvador R. G. Balestra
_symmetry_space_group_name_H-M     'P 1             '
_symmetry_Int_Tables_number        1

loop_
_symmetry_equiv_pos_site_id
_symmetry_equiv_pos_as_xyz
_cell_length_a                       10.3260
_cell_length_b                       15.2215
_cell_length_c                        8.9279
_cell_angle_alpha                   90.4923
_cell_angle_beta                   104.9985
_cell_angle_gamma                   89.6030

loop_
_atom_site_label
_atom_site_type_symbol
_atom_site_fract_x
_atom_site_fract_y
_atom_site_fract_z
_atom_site_charge
  Ge     Ge        0.351599999999962    0.244500000000016    0.893900000000031  0.0000
  Ge     Ge        0.633760411222254    0.746105054632510    0.101046752124335  0.0000
  Ge     Ge        0.285653018923579    0.392995184168536    0.327681716727764  0.0000
  Ge     Ge        0.197902320224957    0.898376993836344    0.661731596890585  0.0000
  Si     Si        0.650177042650885    0.234428236345615    0.099935259309720  0.0000
  Si     Si        0.337098683478374    0.753671081369301    0.889188086232929  0.0000
  Si     Si        0.837021964775170    0.738388819627128    0.881705734152984  0.0000
  Si     Si        0.128734985660995    0.739472063705158    0.087176676805681  0.0000
  Si     Si        0.137777386961709    0.250150445545830    0.099360085186757  0.0000
  Si     Si        0.848654770723253    0.250770525772466    0.887688541934441  0.0000
  Si     Si        0.684380437795893    0.392890682404118    0.666337687556470  0.0000
  Si     Si        0.692231945254898    0.595308549088696    0.658808205260160  0.0000
  Si     Si        0.298300430834447    0.601121240929629    0.315893649163236  0.0000
  Si     Si        0.795953285294015    0.891111645108258    0.330095632434351  0.0000
  Si     Si        0.186151880575351    0.103656286873342    0.655452729526830  0.0000
  Si     Si        0.789750153084475    0.092400513111482    0.325060328426127  0.0000
  Si     Si        0.386770335512713    0.401251869584335    0.689642472921517  0.0000
  Si     Si        0.588287689730820    0.385123137316424    0.309381840195180  0.0000
  Si     Si        0.596217029983353    0.588526221682514    0.301095658290736  0.0000
  Si     Si        0.394958847520259    0.604441374563759    0.673561885000094  0.0000
  Si     Si        0.896912345621547    0.894270903683930    0.687132532440447  0.0000
  Si     Si        0.091014987467924    0.893272056348238    0.298365400574642  0.0000
  Si     Si        0.083243399127864    0.094838018437109    0.297761131287599  0.0000
  Si     Si        0.889599613976480    0.096268690507093    0.681410199530908  0.0000
  O3     O3        0.515662656973492    0.214237729945622    0.972215633911428  0.0000
  O3     O3        0.465997988622213    0.766906352553953    0.028310336969406  0.0000
  O2     O2        0.974507720446441    0.715546439912635    0.008153871525656  0.0000
  O2     O2        0.005027165160704    0.268666824289482    0.963122679386288  0.0000
  O3     O3        0.292630487715219    0.173358777824216    0.741633443869642  0.0000
  O2     O2        0.675896517856399    0.154616751415630    0.222502824049041  0.0000
  O3     O3        0.683701125235728    0.827238748964154    0.238175137623280  0.0000
  O3     O3        0.322701887541333    0.834258844950860    0.772317215115844  0.0000
  O2     O2        0.807895687245803    0.658550904349154    0.756438019233854  0.0000
  O2     O2        0.187449393780583    0.664751865671374    0.212358374021620  0.0000
  O3     O3        0.157325134516414    0.328806286866187    0.222797352069381  0.0000
  O2     O2        0.795921686770210    0.331136969682266    0.772517023934329  0.0000
  O3     O3        0.341245599907549    0.349846519227131    0.820483918568446  0.0000
  O2     O2        0.643980156727929    0.325131606729599    0.191878162291324  0.0000
  O3     O3        0.658106952168357    0.643931944155697    0.187878698865337  0.0000
  O2     O2        0.343811964685666    0.664478448295829    0.793105907551272  0.0000
  O2     O2        0.843315617365265    0.831689976906899    0.800851994086151  0.0000
  O2     O2        0.138553053593792    0.833277929871983    0.174080289620015  0.0000
  O2     O2        0.130957124236190    0.156544988432488    0.179483078087258  0.0000
  O2     O2        0.830064418956250    0.159328275626178    0.792032234215565  0.0000
  O3     O3        0.266811112571962    0.243903297402875    0.033500302920789  0.0000
  O2     O2        0.772034264381496    0.243900597954256    0.020707144458089  0.0000
  O3     O3        0.715263575173018    0.747615527517697    0.958603174727841  0.0000
  O2     O2        0.206750508747236    0.746206065613614    0.955124719320255  0.0000
  O3     O3        0.435037430347347    0.360998642594940    0.290376885230900  0.0000
  O2     O2        0.540561748016335    0.374216773848652    0.697197906593942  0.0000
  O2     O2        0.551664747244893    0.623053245626040    0.693059960255862  0.0000
  O2     O2        0.441800548564648    0.618258538558967    0.281064735246121  0.0000
  O2     O2        0.939172683145162    0.867568095832672    0.297681972707336  0.0000
  O3     O3        0.048518454896781    0.869322329173816    0.698304230352273  0.0000
  O2     O2        0.042325894138281    0.122691760521580    0.690677336066772  0.0000
  O2     O2        0.930425198884249    0.117846146424898    0.292211444289602  0.0000
  O3     O3        0.294849293511076    0.377888165165793    0.520759073587172  0.0000
  O2     O2        0.675232749631599    0.372049966046963    0.486389979251721  0.0000
  O2     O2        0.681678781570002    0.606451755027871    0.477353610572724  0.0000
  O2     O2        0.310471607020739    0.621931582011948    0.497383979414756  0.0000
  O2     O2        0.807215053343083    0.881072226283192    0.512141365541361  0.0000
  O3     O3        0.187544888954419    0.880900913492895    0.467620371481415  0.0000
  O2     O2        0.173878758116776    0.109619551552975    0.471758313582199  0.0000
  O2     O2        0.798307053230245    0.107048393590747    0.506366994255548  0.0000
  O3     O3        0.253685628916205    0.501718543194768    0.278265680881969  0.0000
  O2     O2        0.726713937906837    0.494057231730867    0.706583586171552  0.0000
  O2     O2        0.755147926081261    0.991273617658902    0.278780064140825  0.0000
  O3     O3        0.234049111333553    0.006512635268369    0.711126148531794  0.0000
  O2     O2        0.375610078452000    0.504849957993144    0.719144503586401  0.0000
  O2     O2        0.599756321965524    0.485782387389247    0.260440813308456  0.0000
  O2     O2        0.885271463164149    0.996056152351401    0.737479173664961  0.0000
  O2     O2        0.096749478372423    0.994287731826704    0.246309396429400  0.0000
