data_c00296.vasp
_audit_creation_method             Generated by GULP
_audit_author_name                 Salvador R. G. Balestra
_symmetry_space_group_name_H-M     'P 1             '
_symmetry_Int_Tables_number        1

loop_
_symmetry_equiv_pos_site_id
_symmetry_equiv_pos_as_xyz
_cell_length_a                       10.2076
_cell_length_b                       15.2138
_cell_length_c                        8.9547
_cell_angle_alpha                   89.6733
_cell_angle_beta                   104.9626
_cell_angle_gamma                   90.0837

loop_
_atom_site_label
_atom_site_type_symbol
_atom_site_fract_x
_atom_site_fract_y
_atom_site_fract_z
_atom_site_charge
  Ge     Ge        0.351599999999962    0.244500000000016    0.893900000000031  0.0000
  Ge     Ge        0.362810462095719    0.747877251143943    0.896379460544542  0.0000
  Ge     Ge        0.224437955899889    0.895283261304364    0.660458931667553  0.0000
  Ge     Ge        0.622864008160399    0.395259719582695    0.306526852231891  0.0000
  Si     Si        0.651422684346985    0.235250559382108    0.105099788039052  0.0000
  Si     Si        0.660022558442539    0.756206831393320    0.112902487262310  0.0000
  Si     Si        0.853455632955841    0.741250115865923    0.893862138220396  0.0000
  Si     Si        0.147456243028548    0.740829551789978    0.097160503411802  0.0000
  Si     Si        0.142182719895509    0.257889424646175    0.102786258500252  0.0000
  Si     Si        0.850028374915592    0.245919146866621    0.895277364546479  0.0000
  Si     Si        0.313699134682921    0.396603910331112    0.321768656561946  0.0000
  Si     Si        0.715404279981099    0.393274589245005    0.669694759810622  0.0000
  Si     Si        0.714992505979051    0.595615641744020    0.673044709134282  0.0000
  Si     Si        0.321850152250554    0.602353888437307    0.326239699372473  0.0000
  Si     Si        0.822730194414711    0.897608451538308    0.334792353151357  0.0000
  Si     Si        0.219707329130952    0.098863304230403    0.664557994167683  0.0000
  Si     Si        0.819785125424413    0.099433262065123    0.334916229009847  0.0000
  Si     Si        0.410329610267117    0.393441124566239    0.673847297543311  0.0000
  Si     Si        0.625578078279218    0.599661465325846    0.313317532667459  0.0000
  Si     Si        0.413325528613848    0.598419280518771    0.679225813949771  0.0000
  Si     Si        0.919614581423785    0.892268111941971    0.687111331250793  0.0000
  Si     Si        0.121768370965944    0.899762345773718    0.300403443395137  0.0000
  Si     Si        0.116905566454110    0.099134778076497    0.305299495153901  0.0000
  Si     Si        0.921800236471600    0.097257165211766    0.689502051438460  0.0000
  O3     O3        0.492029092892768    0.221564519523844    0.040663809003067  0.0000
  O3     O3        0.500823953522781    0.766847425189774    0.047204420796936  0.0000
  O2     O2        0.988769707511484    0.720440518805032    0.026499428322531  0.0000
  O2     O2        0.981202775136115    0.268039432289557    0.032275721316867  0.0000
  O3     O3        0.332176355628552    0.165305568216500    0.753205851818293  0.0000
  O2     O2        0.702372803555880    0.160504845611280    0.235138154820506  0.0000
  O2     O2        0.711296812652167    0.838459148256995    0.222961013981501  0.0000
  O1     O1        0.349690773334792    0.828899505222580    0.761227369568336  0.0000
  O2     O2        0.827795962844917    0.660352110714165    0.773628647645226  0.0000
  O2     O2        0.208250679544369    0.663287410318856    0.218387103317531  0.0000
  O2     O2        0.192663976508718    0.341486325521797    0.212143814269853  0.0000
  O2     O2        0.823547868113240    0.328598353794236    0.778367334089195  0.0000
  O3     O3        0.361873831782699    0.343868105836854    0.804756903374411  0.0000
  O3     O3        0.682980152720690    0.329678404275361    0.184585104337361  0.0000
  O2     O2        0.690456285990807    0.666976996650057    0.214340610365583  0.0000
  O3     O3        0.360916290716703    0.647744325558623    0.806523888782649  0.0000
  O2     O2        0.863189406541133    0.832517294713254    0.805149461223240  0.0000
  O2     O2        0.165508805402006    0.835366784770369    0.181227184380725  0.0000
  O2     O2        0.175273595736129    0.167919235590285    0.202909173263375  0.0000
  O2     O2        0.867668916394150    0.156426141101297    0.807702816390587  0.0000
  O3     O3        0.211707209271316    0.252210016981311    0.964461068524634  0.0000
  O2     O2        0.722403355220614    0.228979227005451    0.965060264512501  0.0000
  O2     O2        0.729172828466000    0.751073143896516    0.971503872433452  0.0000
  O3     O3        0.218302204729197    0.746930478667280    0.960532294402974  0.0000
  O3     O3        0.453328356057912    0.371188193391566    0.283593584163118  0.0000
  O2     O2        0.565764115791249    0.368438318916012    0.684275958928864  0.0000
  O2     O2        0.571186369719789    0.622530539159394    0.701495550079518  0.0000
  O2     O2        0.466415270969573    0.621734449821202    0.291656341422977  0.0000
  O2     O2        0.970124950547140    0.876985519853332    0.311108133281149  0.0000
  O3     O3        0.070998485203887    0.864349824404117    0.693058181093301  0.0000
  O2     O2        0.076142040970907    0.123740563410917    0.699404872352951  0.0000
  O2     O2        0.961383425183827    0.123129988867728    0.296515673755835  0.0000
  O2     O2        0.321683653862260    0.372295981514940    0.500122794522388  0.0000
  O3     O3        0.718206869139033    0.380799480767042    0.494025515875148  0.0000
  O2     O2        0.708060589505375    0.606650221931351    0.492474880059932  0.0000
  O2     O2        0.329888875324217    0.624438134483803    0.504601053857568  0.0000
  O2     O2        0.825191791700719    0.878858755434399    0.512986300536739  0.0000
  O3     O3        0.221410669318679    0.887773537088176    0.467608029029101  0.0000
  O2     O2        0.205692975128617    0.103417470008260    0.481227718676358  0.0000
  O2     O2        0.830550871390652    0.114888406968125    0.515735543602096  0.0000
  O2     O2        0.284008022053256    0.500312923148996    0.291599483713143  0.0000
  O2     O2        0.751483482724928    0.494322180232561    0.721736687280795  0.0000
  O2     O2        0.782019470668527    0.998479192164053    0.292168149749852  0.0000
  O3     O3        0.260586885693512    0.001413354949279    0.723310052010754  0.0000
  O2     O2        0.397384876708070    0.495757601879457    0.705934942144132  0.0000
  O3     O3        0.638437330411800    0.502901302834696    0.252812312880263  0.0000
  O2     O2        0.913940682703679    0.994702039616663    0.734146773142691  0.0000
  O2     O2        0.127340875932061    0.000672763303740    0.241843379700772  0.0000
