data_c00237.vasp
_audit_creation_method             Generated by GULP
_audit_author_name                 Salvador R. G. Balestra
_symmetry_space_group_name_H-M     'P 1             '
_symmetry_Int_Tables_number        1

loop_
_symmetry_equiv_pos_site_id
_symmetry_equiv_pos_as_xyz
_cell_length_a                       10.1967
_cell_length_b                       15.1816
_cell_length_c                        8.9572
_cell_angle_alpha                   89.7152
_cell_angle_beta                   104.9798
_cell_angle_gamma                   89.8153

loop_
_atom_site_label
_atom_site_type_symbol
_atom_site_fract_x
_atom_site_fract_y
_atom_site_fract_z
_atom_site_charge
  Ge     Ge        0.351599999999962    0.244500000000016    0.893900000000031  0.0000
  Ge     Ge        0.360036738417892    0.765728549512964    0.896156492503623  0.0000
  Ge     Ge        0.858810098693659    0.741921158731525    0.898222835081187  0.0000
  Ge     Ge        0.884546011482047    0.108341623209778    0.693167909089747  0.0000
  Si     Si        0.650953114905172    0.255227993347454    0.104089754215308  0.0000
  Si     Si        0.656435669897299    0.758725187903205    0.110586175527111  0.0000
  Si     Si        0.155282619594606    0.754908350783325    0.106484807500377  0.0000
  Si     Si        0.143063899572801    0.261662882880918    0.103609363156383  0.0000
  Si     Si        0.851424169992260    0.266324819523744    0.898231900107346  0.0000
  Si     Si        0.278172264133044    0.407982900333605    0.325753818383498  0.0000
  Si     Si        0.673453047366797    0.397653450092696    0.663892050638567  0.0000
  Si     Si        0.680342667245171    0.604100057078658    0.669899599639042  0.0000
  Si     Si        0.282810191346270    0.608010480024685    0.333392876036920  0.0000
  Si     Si        0.780486673995634    0.908155538446030    0.328714011614768  0.0000
  Si     Si        0.177690208492784    0.900203407469138    0.659490094874092  0.0000
  Si     Si        0.183503866752042    0.108146308124307    0.662506632697752  0.0000
  Si     Si        0.777263717339131    0.107030093612285    0.334632468937796  0.0000
  Si     Si        0.375453392567541    0.401904250104349    0.682792919044837  0.0000
  Si     Si        0.582205325997550    0.404976535091927    0.310320459593259  0.0000
  Si     Si        0.586304056711275    0.606742114314028    0.315764460282636  0.0000
  Si     Si        0.382021383764964    0.606184055576771    0.690038889366183  0.0000
  Si     Si        0.884135260620545    0.900672139917609    0.688060212194092  0.0000
  Si     Si        0.081807917246103    0.907039563529685    0.305137453224108  0.0000
  Si     Si        0.083717640997185    0.107938984740726    0.313158423348832  0.0000
  O3     O3        0.523421243482110    0.232117874093814    0.967325980331359  0.0000
  O3     O3        0.532472854540753    0.780102815462004    0.965429005882713  0.0000
  O3     O3        0.032137096034172    0.729444808573607    0.964479541046714  0.0000
  O2     O2        0.012071235982768    0.283900091428060    0.964205741099927  0.0000
  O3     O3        0.309865149473702    0.156628430251302    0.770180623120873  0.0000
  O2     O2        0.675537562835860    0.174937203764196    0.225978628974549  0.0000
  O2     O2        0.673087249061502    0.839207505493071    0.232192383967468  0.0000
  O3     O3        0.304171594532874    0.848588413880477    0.762197801437620  0.0000
  O3     O3        0.804024497644642    0.653801182177143    0.778116138646017  0.0000
  O2     O2        0.175940773089847    0.677077192801534    0.234647554689887  0.0000
  O2     O2        0.168017643741758    0.343149569728477    0.222638505966906  0.0000
  O2     O2        0.795235259020269    0.340443447047223    0.767812082704247  0.0000
  O3     O3        0.312705301100385    0.342613262482864    0.792032201313388  0.0000
  O2     O2        0.627449205816940    0.345344100628290    0.186911526698466  0.0000
  O2     O2        0.631034025357008    0.668552545797396    0.193994105354169  0.0000
  O3     O3        0.324339781833133    0.665205813899231    0.803562348805877  0.0000
  O3     O3        0.819314966132458    0.837868001643692    0.791249989364033  0.0000
  O2     O2        0.124549094724367    0.846579511633854    0.180694587316823  0.0000
  O2     O2        0.117699696486599    0.172125725529049    0.187812147047121  0.0000
  O3     O3        0.825377899136227    0.171320655136390    0.820804738066849  0.0000
  O3     O3        0.272789116826390    0.244330977863953    0.040831004546587  0.0000
  O2     O2        0.781540825566651    0.271397256958029    0.038952090128199  0.0000
  O3     O3        0.790862289978933    0.744797535638331    0.054081288759489  0.0000
  O3     O3        0.289439176121911    0.769169134634661    0.049629123691677  0.0000
  O2     O2        0.421934636985176    0.392756577675150    0.287216863339645  0.0000
  O2     O2        0.532304227607669    0.372249548895809    0.703121038388369  0.0000
  O2     O2        0.540048062417760    0.632161215799656    0.710359719799902  0.0000
  O2     O2        0.426959460965806    0.620997071814561    0.295541414380944  0.0000
  O2     O2        0.923587248023704    0.891977263186231    0.289752751819973  0.0000
  O2     O2        0.038992000941465    0.867963062146819    0.699517689617899  0.0000
  O3     O3        0.046795657479761    0.143639427130133    0.699525024408692  0.0000
  O2     O2        0.930032536015075    0.120807939635054    0.321294726159396  0.0000
  O2     O2        0.291712177382032    0.388071940840413    0.505453368422947  0.0000
  O2     O2        0.662647947995594    0.377384279215232    0.484179951467832  0.0000
  O2     O2        0.669127538725965    0.628222306405846    0.490678706373550  0.0000
  O2     O2        0.297234973629622    0.624540042211845    0.513853904221548  0.0000
  O2     O2        0.795985567722348    0.895634456204501    0.510441165545408  0.0000
  O2     O2        0.167971373252507    0.883587531738893    0.478617575436387  0.0000
  O2     O2        0.180189889347728    0.127014742867359    0.483101690702443  0.0000
  O3     O3        0.777061879270651    0.121222795932252    0.510417372203467  0.0000
  O2     O2        0.229722942118249    0.508939579694945    0.287959490347832  0.0000
  O2     O2        0.704381378561816    0.499970960833197    0.696832704896979  0.0000
  O2     O2        0.728718433886334    0.007682612016152    0.281464346692825  0.0000
  O2     O2        0.192490164383062    0.003752227563603    0.694296147368144  0.0000
  O2     O2        0.370087462613839    0.503652089711506    0.730101850571715  0.0000
  O2     O2        0.614660436367437    0.505879604751812    0.276815028557733  0.0000
  O3     O3        0.884334650171523    0.999564656766081    0.747958411769424  0.0000
  O2     O2        0.107511810680805    0.008134733632105    0.263648440634254  0.0000
