data_c00209.vasp
_audit_creation_method             Generated by GULP
_audit_author_name                 Salvador R. G. Balestra
_symmetry_space_group_name_H-M     'P 1             '
_symmetry_Int_Tables_number        1

loop_
_symmetry_equiv_pos_site_id
_symmetry_equiv_pos_as_xyz
_cell_length_a                       10.2525
_cell_length_b                       15.2491
_cell_length_c                        8.9592
_cell_angle_alpha                   90.0435
_cell_angle_beta                   105.2488
_cell_angle_gamma                   89.4267

loop_
_atom_site_label
_atom_site_type_symbol
_atom_site_fract_x
_atom_site_fract_y
_atom_site_fract_z
_atom_site_charge
  Ge     Ge        0.351599999999962    0.244500000000016    0.893900000000031  0.0000
  Ge     Ge        0.615545345720331    0.765589326148394    0.098001214807114  0.0000
  Ge     Ge        0.377688122411852    0.405251547322578    0.678460307257787  0.0000
  Ge     Ge        0.079758041736403    0.905479923344537    0.295336986512420  0.0000
  Si     Si        0.653575487842684    0.253536535424422    0.101340160969631  0.0000
  Si     Si        0.316407041739626    0.759938568697756    0.885270125945163  0.0000
  Si     Si        0.821281962266413    0.751893063966507    0.883869571940933  0.0000
  Si     Si        0.115379971708091    0.746898662742998    0.088610846413899  0.0000
  Si     Si        0.146299156279687    0.262233000437091    0.101467452085660  0.0000
  Si     Si        0.853939268993816    0.263145288290861    0.891129402596886  0.0000
  Si     Si        0.287021015128216    0.408095787397063    0.316880982229364  0.0000
  Si     Si        0.686838161692970    0.402577382606392    0.664629204471224  0.0000
  Si     Si        0.685567625229240    0.605200748248784    0.663311375541264  0.0000
  Si     Si        0.291447339816627    0.611821426615890    0.318083435059973  0.0000
  Si     Si        0.776071214491840    0.908484870447679    0.324524765979238  0.0000
  Si     Si        0.181107096715977    0.903260660909681    0.656962062653768  0.0000
  Si     Si        0.184959461939368    0.103815718824543    0.665287478599411  0.0000
  Si     Si        0.786002952933486    0.110784981502806    0.333263360934795  0.0000
  Si     Si        0.590068717789420    0.404366469743030    0.307764059031530  0.0000
  Si     Si        0.592236181754750    0.606982873202173    0.305649272455629  0.0000
  Si     Si        0.383191313353451    0.610831698166251    0.675417251975258  0.0000
  Si     Si        0.881757230397802    0.905383349487139    0.678823768998727  0.0000
  Si     Si        0.083354472984787    0.109704957838356    0.308100700865801  0.0000
  Si     Si        0.886761080258082    0.107271589517886    0.688266736918599  0.0000
  O3     O3        0.523500729809704    0.232066243236369    0.966969162947711  0.0000
  O3     O3        0.444422303374471    0.778929787785294    0.023841766918576  0.0000
  O2     O2        0.955308817835166    0.731267127205528    0.020043209396128  0.0000
  O2     O2        0.012517177174968    0.278688194323381    0.963924232180845  0.0000
  O3     O3        0.304400602064845    0.162103008252827    0.759247991114143  0.0000
  O2     O2        0.676008272421021    0.176740244361761    0.230082635493096  0.0000
  O3     O3        0.656191047479318    0.851591815216957    0.225581690744790  0.0000
  O2     O2        0.292133514169989    0.841409797998636    0.767287117503000  0.0000
  O2     O2        0.796449900678640    0.669702924633409    0.765868679800669  0.0000
  O2     O2        0.172490493548298    0.671484909665296    0.215398495570166  0.0000
  O2     O2        0.173932525844853    0.351756602286796    0.199722915104619  0.0000
  O2     O2        0.803267799764342    0.340776224878280    0.767860478920682  0.0000
  O1     O1        0.316783671736704    0.343231697425173    0.800786136251872  0.0000
  O2     O2        0.639182739001175    0.345520603303385    0.184925680777837  0.0000
  O3     O3        0.652168197068786    0.666625228532274    0.196118911998909  0.0000
  O2     O2        0.334981895841652    0.673172233072197    0.792662463363878  0.0000
  O2     O2        0.835723528434436    0.842157672209208    0.796720054373463  0.0000
  O3     O3        0.138809505005443    0.840488844867490    0.170936825800410  0.0000
  O2     O2        0.134302102240152    0.180509779719412    0.207802609203401  0.0000
  O2     O2        0.832271095881355    0.169237778899364    0.804171774245035  0.0000
  O3     O3        0.272263228739737    0.236892671803709    0.037827770849077  0.0000
  O2     O2        0.779416494180095    0.262495637504977    0.027013723897689  0.0000
  O3     O3        0.695233736421385    0.766937976668735    0.953021949884336  0.0000
  O2     O2        0.186677804016310    0.743852870879843    0.950121849380064  0.0000
  O2     O2        0.433658826838443    0.384294570226960    0.291888760189839  0.0000
  O3     O3        0.546807123908642    0.380538089491130    0.701181879015044  0.0000
  O2     O2        0.542504082877553    0.624543266344595    0.698455556175876  0.0000
  O2     O2        0.433927163759265    0.632812581717083    0.281447944283508  0.0000
  O3     O3        0.914335536252599    0.879397032097445    0.285237512525778  0.0000
  O2     O2        0.032931132700320    0.880604726165263    0.675270060143494  0.0000
  O2     O2        0.042554033091105    0.130840575435194    0.700577673763920  0.0000
  O2     O2        0.929251540954603    0.132049132174933    0.303308209594027  0.0000
  O3     O3        0.287644679467647    0.385541460958622    0.490016158915828  0.0000
  O2     O2        0.676074918928430    0.385352012731695    0.483280915291639  0.0000
  O2     O2        0.674013115720878    0.623134368504744    0.483494079698556  0.0000
  O2     O2        0.302616298855079    0.631166475294883    0.497982605648786  0.0000
  O2     O2        0.786169118719626    0.894168504408020    0.506239473826755  0.0000
  O3     O3        0.180737712112228    0.889799857364127    0.480780011022335  0.0000
  O2     O2        0.174278969302349    0.114802730774997    0.483867088543601  0.0000
  O2     O2        0.794735733635810    0.124067103937022    0.514299680252655  0.0000
  O2     O2        0.253930679150415    0.510637090610307    0.281545126941463  0.0000
  O2     O2        0.726733526772653    0.503987536459794    0.704682189501084  0.0000
  O2     O2        0.746291013530326    0.011233085816451    0.283687681898919  0.0000
  O2     O2        0.217908979540629    0.002559311508019    0.711298808163960  0.0000
  O3     O3        0.356570153403687    0.513393478355628    0.720661989695944  0.0000
  O2     O2        0.606200853324006    0.505233318343689    0.263440722038760  0.0000
  O2     O2        0.874225666552266    0.005944074338073    0.735190599196779  0.0000
  O3     O3        0.092603474434002    0.013214266313131    0.242284277351979  0.0000
