data_c00277.vasp
_audit_creation_method             Generated by GULP
_audit_author_name                 Salvador R. G. Balestra
_symmetry_space_group_name_H-M     'P 1             '
_symmetry_Int_Tables_number        1

loop_
_symmetry_equiv_pos_site_id
_symmetry_equiv_pos_as_xyz
_cell_length_a                       10.2241
_cell_length_b                       15.2204
_cell_length_c                        8.9406
_cell_angle_alpha                   90.2044
_cell_angle_beta                   104.8846
_cell_angle_gamma                   89.6216

loop_
_atom_site_label
_atom_site_type_symbol
_atom_site_fract_x
_atom_site_fract_y
_atom_site_fract_z
_atom_site_charge
  Ge     Ge        0.351599999999962    0.244500000000016    0.893900000000031  0.0000
  Ge     Ge        0.309841273308858    0.756777946075859    0.896377559227792  0.0000
  Ge     Ge        0.679808951622539    0.402065573282868    0.668344073485540  0.0000
  Ge     Ge        0.577596203580644    0.609809154826440    0.306967128446760  0.0000
  Si     Si        0.648508968206983    0.250635235750269    0.102266723799198  0.0000
  Si     Si        0.609011467340570    0.770340656312386    0.106085113687984  0.0000
  Si     Si        0.806941653894337    0.756523374032238    0.894928166302041  0.0000
  Si     Si        0.098400293566432    0.744648937834314    0.103652428196974  0.0000
  Si     Si        0.147916147733869    0.257201711558749    0.109541157498727  0.0000
  Si     Si        0.855443812067985    0.262715267216024    0.898697308183877  0.0000
  Si     Si        0.280979414962444    0.404462335022424    0.330741592449765  0.0000
  Si     Si        0.673999760747125    0.608953963982112    0.670738040835225  0.0000
  Si     Si        0.270679003934435    0.607453997653922    0.327107013420624  0.0000
  Si     Si        0.775841960505911    0.907978188111313    0.332425589699076  0.0000
  Si     Si        0.175583476875906    0.900853421171589    0.661868218402941  0.0000
  Si     Si        0.182250438045230    0.103323642339817    0.666160639553267  0.0000
  Si     Si        0.783570815801028    0.109206917238361    0.336493603716802  0.0000
  Si     Si        0.375587134153623    0.400587252127814    0.683667540282347  0.0000
  Si     Si        0.582544041236002    0.405220273416014    0.304565715545194  0.0000
  Si     Si        0.373333686140798    0.605457293297679    0.681794872916952  0.0000
  Si     Si        0.878928422263239    0.904072019694374    0.688079517357064  0.0000
  Si     Si        0.075247203641489    0.903812848576503    0.305234988848243  0.0000
  Si     Si        0.082701610551130    0.103801088386102    0.309797581424055  0.0000
  Si     Si        0.884780145243187    0.107802522609072    0.691682217772414  0.0000
  O3     O3        0.521892296033956    0.225001092169759    0.966209430545503  0.0000
  O3     O3        0.449320804566728    0.782031367648814    0.041939912042967  0.0000
  O2     O2        0.938194768825606    0.733091573737896    0.031487890022880  0.0000
  O2     O2        0.014231540352611    0.276581129876582    0.974744348112496  0.0000
  O3     O3        0.301950186202306    0.160618110682269    0.762781047337421  0.0000
  O2     O2        0.675452027762152    0.175624331924488    0.234068007255444  0.0000
  O2     O2        0.659407248138473    0.847929041333472    0.230136938287046  0.0000
  O3     O3        0.289717687236053    0.838067217823458    0.758348949517782  0.0000
  O2     O2        0.780612796280757    0.675595456310296    0.775553623383736  0.0000
  O2     O2        0.148824918349315    0.665640273136538    0.224803209108771  0.0000
  O2     O2        0.171106895772281    0.340197733513914    0.225992624156133  0.0000
  O3     O3        0.809648579143616    0.339475824685882    0.776093168557636  0.0000
  O3     O3        0.316182773125937    0.344278029339151    0.799771626427337  0.0000
  O2     O2        0.621298925945002    0.342276509548112    0.178791043194604  0.0000
  O3     O3        0.641228736740069    0.677310983181291    0.190569841310599  0.0000
  O3     O3        0.322504526488210    0.656868394706431    0.809659531994099  0.0000
  O2     O2        0.824351274654152    0.845899426677847    0.806765629185231  0.0000
  O2     O2        0.127465252249839    0.837958839957251    0.193110859139921  0.0000
  O2     O2        0.134728567479073    0.167170240476365    0.197165428764481  0.0000
  O2     O2        0.830580956751901    0.168738113943071    0.809662219853402  0.0000
  O3     O3        0.276258461789346    0.243668621986560    0.043201462153378  0.0000
  O2     O2        0.776774274598037    0.263948375179370    0.032149152741649  0.0000
  O2     O2        0.679665306437272    0.773503767123454    0.965279691205998  0.0000
  O3     O3        0.170879904432202    0.744575501181276    0.967288804909221  0.0000
  O2     O2        0.429854315143031    0.383962320115851    0.311673847525021  0.0000
  O3     O3        0.527996881172601    0.367127933762585    0.696658289284355  0.0000
  O2     O2        0.523637673547922    0.636218307914294    0.682156396850266  0.0000
  O3     O3        0.409651681131519    0.636450316416059    0.291214591409483  0.0000
  O2     O2        0.916728267397708    0.888081822969439    0.289991664641066  0.0000
  O2     O2        0.034242966003134    0.878010105203336    0.702477805498881  0.0000
  O2     O2        0.041866101396697    0.129923889026629    0.707110943557927  0.0000
  O2     O2        0.926207286784699    0.123621406391732    0.297166031061080  0.0000
  O2     O2        0.282626038084999    0.388158367962133    0.508956066925461  0.0000
  O3     O3        0.679278648889225    0.393834791298582    0.475134419665536  0.0000
  O3     O3        0.676631393383925    0.617833409257860    0.493572459421217  0.0000
  O2     O2        0.277958455645617    0.620871304032993    0.508764333239120  0.0000
  O2     O2        0.790536657923672    0.887352259216442    0.512977320966701  0.0000
  O2     O2        0.160288075983691    0.885849920285012    0.480101087051081  0.0000
  O2     O2        0.169342107226494    0.118803799042577    0.484794900224395  0.0000
  O2     O2        0.797563055870157    0.128548732160962    0.517339132060206  0.0000
  O2     O2        0.241363867451551    0.505089890798040    0.282667729665988  0.0000
  O3     O3        0.708745248818051    0.510129129578165    0.726613287514724  0.0000
  O2     O2        0.733694397216052    0.009567828696522    0.297551824166960  0.0000
  O2     O2        0.214116596492488    0.001309764874125    0.706783454883416  0.0000
  O2     O2        0.378400292249267    0.503083584654499    0.726999038261088  0.0000
  O3     O3        0.588511240108949    0.503445936062954    0.245075692871185  0.0000
  O2     O2        0.867549717566449    0.006250538895510    0.732396554897840  0.0000
  O2     O2        0.099585201778039    0.003377469037493    0.257551200951730  0.0000
