data_c00223.vasp
_audit_creation_method             Generated by GULP
_audit_author_name                 Salvador R. G. Balestra
_symmetry_space_group_name_H-M     'P 1             '
_symmetry_Int_Tables_number        1

loop_
_symmetry_equiv_pos_site_id
_symmetry_equiv_pos_as_xyz
_cell_length_a                       10.2975
_cell_length_b                       15.1838
_cell_length_c                        8.9380
_cell_angle_alpha                   90.1665
_cell_angle_beta                   104.8074
_cell_angle_gamma                   89.8613

loop_
_atom_site_label
_atom_site_type_symbol
_atom_site_fract_x
_atom_site_fract_y
_atom_site_fract_z
_atom_site_charge
  Ge     Ge        0.351599999999962    0.244500000000016    0.893900000000031  0.0000
  Ge     Ge        0.384252353116982    0.759728978215021    0.897883039830704  0.0000
  Ge     Ge        0.883349349270737    0.745031366185046    0.898077908270685  0.0000
  Ge     Ge        0.709300896907716    0.397591872431999    0.667191684972244  0.0000
  Si     Si        0.649398494626841    0.243939015035175    0.103572177477476  0.0000
  Si     Si        0.678668198403158    0.758396790497898    0.109799966075222  0.0000
  Si     Si        0.177060937773458    0.745770000184616    0.105795510723324  0.0000
  Si     Si        0.145394461181845    0.257832947867170    0.107199259777516  0.0000
  Si     Si        0.856031424345627    0.255885922607831    0.900290090649160  0.0000
  Si     Si        0.311916004114939    0.400194372421178    0.329309396488348  0.0000
  Si     Si        0.707581383486754    0.606256984984828    0.665611118460528  0.0000
  Si     Si        0.311161218395762    0.602057124058911    0.332511458370092  0.0000
  Si     Si        0.809871624862543    0.904206994762399    0.335473241716986  0.0000
  Si     Si        0.207126993107762    0.896550830406187    0.662864217220064  0.0000
  Si     Si        0.212847119056283    0.101136261775640    0.663427693257588  0.0000
  Si     Si        0.815405741497329    0.105742018413416    0.334692066353083  0.0000
  Si     Si        0.409910659887939    0.396663209790321    0.684092644975713  0.0000
  Si     Si        0.612115612508736    0.401851143674895    0.304088773355556  0.0000
  Si     Si        0.608463660307902    0.602960604442633    0.307496916042825  0.0000
  Si     Si        0.413741980059820    0.603033198839691    0.687287894822600  0.0000
  Si     Si        0.913701038402149    0.902520178801022    0.690843778482322  0.0000
  Si     Si        0.107082727724239    0.900130081965699    0.306496605830400  0.0000
  Si     Si        0.113497667547595    0.100300131719438    0.307925847135360  0.0000
  Si     Si        0.919965117761165    0.107562712759211    0.689672862978854  0.0000
  O3     O3        0.496157729593144    0.220017319018781    0.030820892119470  0.0000
  O3     O3        0.553064110751236    0.780780079299666    0.969696845558052  0.0000
  O3     O3        0.052236461524113    0.721762065522124    0.966151072738653  0.0000
  O2     O2        0.987211929414542    0.274881115539710    0.037884798157625  0.0000
  O3     O3        0.331398385466143    0.159646498530032    0.760660834550559  0.0000
  O2     O2        0.706904231914733    0.171171138071556    0.233702853659354  0.0000
  O2     O2        0.700071867240838    0.838719299639366    0.233558485173179  0.0000
  O3     O3        0.326891088933243    0.839156129708462    0.759705287633832  0.0000
  O3     O3        0.825499849436462    0.666881540968553    0.757897220873543  0.0000
  O2     O2        0.200289313782102    0.666902325559618    0.231372628645095  0.0000
  O2     O2        0.201144701438871    0.337540420487968    0.224406947393387  0.0000
  O3     O3        0.835901817542447    0.334246655602780    0.778137590569599  0.0000
  O3     O3        0.349699838946596    0.344887771116660    0.803900082307152  0.0000
  O2     O2        0.658422742944515    0.340770507716189    0.180676161413071  0.0000
  O2     O2        0.653871601295607    0.667652683935753    0.190861235377142  0.0000
  O3     O3        0.356494552149681    0.657918039270394    0.806989016274633  0.0000
  O3     O3        0.857339613491306    0.847426436933941    0.810004428313850  0.0000
  O2     O2        0.146849647733270    0.836489761984237    0.184110167241681  0.0000
  O2     O2        0.168734923516032    0.165003213063546    0.197904046753997  0.0000
  O2     O2        0.866476859015040    0.164284972964957    0.812144544128447  0.0000
  O3     O3        0.216380558073079    0.252324492581876    0.970905825258574  0.0000
  O2     O2        0.728038724395011    0.247306446216041    0.970753638404243  0.0000
  O3     O3        0.809594057203980    0.743097649530564    0.048861055815398  0.0000
  O3     O3        0.308757256559395    0.761652612148997    0.047072913854470  0.0000
  O2     O2        0.456675978104528    0.381217861559739    0.298098060754346  0.0000
  O3     O3        0.559181422531413    0.362009779412023    0.697130881451905  0.0000
  O2     O2        0.566281589124171    0.635684802649946    0.700129582574643  0.0000
  O2     O2        0.453091323403490    0.621908984628604    0.296226709706160  0.0000
  O2     O2        0.950276990743035    0.887718575513276    0.293389683458402  0.0000
  O2     O2        0.067720335436915    0.871759161840380    0.705077562577164  0.0000
  O2     O2        0.074687597548480    0.131626108439648    0.703822061869367  0.0000
  O2     O2        0.956660351429847    0.118831471619561    0.292549084327516  0.0000
  O2     O2        0.319524477292044    0.382331439733705    0.508694082397661  0.0000
  O3     O3        0.704151273661645    0.384857504826480    0.473645403137232  0.0000
  O2     O2        0.696499733872094    0.615522737500726    0.482514747777050  0.0000
  O2     O2        0.322488384330667    0.618975921523425    0.513217096491183  0.0000
  O2     O2        0.825483315260123    0.884638542166177    0.516006369546875  0.0000
  O2     O2        0.192326820373727    0.879870364468508    0.480527904362523  0.0000
  O2     O2        0.199208624859265    0.116844230062378    0.482327853556993  0.0000
  O2     O2        0.831634770526748    0.127243601495163    0.515577427892864  0.0000
  O2     O2        0.268365015898767    0.501268273095411    0.287876870366552  0.0000
  O3     O3        0.739390426823422    0.506185389084630    0.717504302954797  0.0000
  O2     O2        0.764193174548141    0.005441550810740    0.298507164595491  0.0000
  O2     O2        0.240099976023891    0.998700221661776    0.703407424164523  0.0000
  O2     O2        0.416325724515190    0.500007163446947    0.726236734626221  0.0000
  O2     O2        0.626146259386392    0.502953964953766    0.254300060121803  0.0000
  O2     O2        0.907599819971854    0.005492289645449    0.730135854196102  0.0000
  O2     O2        0.134155092040983    0.999847121168691    0.259390314680715  0.0000
