data_c00288.vasp
_audit_creation_method             Generated by GULP
_audit_author_name                 Salvador R. G. Balestra
_symmetry_space_group_name_H-M     'P 1             '
_symmetry_Int_Tables_number        1

loop_
_symmetry_equiv_pos_site_id
_symmetry_equiv_pos_as_xyz
_cell_length_a                       10.2599
_cell_length_b                       15.2087
_cell_length_c                        8.9614
_cell_angle_alpha                   90.6318
_cell_angle_beta                   105.0823
_cell_angle_gamma                   90.4051

loop_
_atom_site_label
_atom_site_type_symbol
_atom_site_fract_x
_atom_site_fract_y
_atom_site_fract_z
_atom_site_charge
  Ge     Ge        0.351599999999962    0.244500000000016    0.893900000000031  0.0000
  Ge     Ge        0.380232013361599    0.757755524124355    0.889605150408927  0.0000
  Ge     Ge        0.811427183908899    0.887968723813879    0.337762441291532  0.0000
  Ge     Ge        0.620399719324368    0.594382462220655    0.306367473491903  0.0000
  Si     Si        0.650156851837169    0.233553377172949    0.109028903691698  0.0000
  Si     Si        0.678615020572974    0.745191681197902    0.098093450488395  0.0000
  Si     Si        0.885518791010682    0.742847707000077    0.899982902811745  0.0000
  Si     Si        0.177857935087978    0.738400007531114    0.105478885979471  0.0000
  Si     Si        0.141928547260380    0.250969654744957    0.103711559802733  0.0000
  Si     Si        0.849233265387972    0.253139473828696    0.896957704244069  0.0000
  Si     Si        0.315839168079871    0.390037511048261    0.331453264672935  0.0000
  Si     Si        0.709467564940009    0.397711410709787    0.675858630178452  0.0000
  Si     Si        0.712523777986984    0.602931892654405    0.668505659126828  0.0000
  Si     Si        0.313481301637060    0.593076698285595    0.319273593603047  0.0000
  Si     Si        0.213948292920887    0.900726716658263    0.666490700349607  0.0000
  Si     Si        0.209002584544908    0.103260593187622    0.655679135519094  0.0000
  Si     Si        0.809662690633008    0.092084158953759    0.328051620220748  0.0000
  Si     Si        0.409875528818301    0.398520045412124    0.688101954221338  0.0000
  Si     Si        0.618410434381244    0.388003098768206    0.319129232151391  0.0000
  Si     Si        0.408697669899271    0.601205205320371    0.675208199007246  0.0000
  Si     Si        0.917958069873138    0.898967045511216    0.697692385740830  0.0000
  Si     Si        0.116438289997606    0.891162580085077    0.311821352071080  0.0000
  Si     Si        0.108124784459954    0.092719589945460    0.300910912759350  0.0000
  Si     Si        0.914623648642983    0.102026881023344    0.685878238783326  0.0000
  O3     O3        0.493462911534777    0.217980413728527    0.032764769328738  0.0000
  O3     O3        0.551391774537368    0.769808461851127    0.962110474753687  0.0000
  O2     O2        0.042546638414510    0.721547280668883    0.970025777585001  0.0000
  O2     O2        0.984975896366712    0.272003055382202    0.029805954541243  0.0000
  O3     O3        0.326354263979082    0.165616387862964    0.749094482958123  0.0000
  O2     O2        0.698435681118115    0.154945053482050    0.227039685743490  0.0000
  O3     O3        0.693049173010797    0.813725196822425    0.239476130424414  0.0000
  O3     O3        0.332292994087824    0.846798695808359    0.772967924662793  0.0000
  O2     O2        0.824443396048967    0.664812353825946    0.779203056784817  0.0000
  O2     O2        0.197031915642802    0.653591844754207    0.216121514853550  0.0000
  O2     O2        0.201230477114132    0.326062426244266    0.231778294002602  0.0000
  O2     O2        0.821835708615938    0.337313861884932    0.784985477259155  0.0000
  O3     O3        0.357258366786338    0.345771405918339    0.811458695549035  0.0000
  O2     O2        0.674796293796496    0.323822160030228    0.208528958023320  0.0000
  O3     O3        0.669338453396611    0.648690972968959    0.163722777121151  0.0000
  O3     O3        0.345445516764817    0.661883783007567    0.781214967977873  0.0000
  O2     O2        0.871238486614749    0.837878569864144    0.819587338116340  0.0000
  O2     O2        0.172755333030414    0.827814641021896    0.200656965131928  0.0000
  O2     O2        0.157986927250599    0.155639924949054    0.184292688787889  0.0000
  O2     O2        0.858367236075797    0.165534093060686    0.797565417815622  0.0000
  O3     O3        0.215281009792474    0.249095160204542    0.969553238496341  0.0000
  O2     O2        0.727035755399134    0.237940789196027    0.974790863097917  0.0000
  O2     O2        0.812528218672493    0.750023047980783    0.036601860579640  0.0000
  O3     O3        0.304977156560905    0.750916408238261    0.037476576638857  0.0000
  O2     O2        0.459067336326691    0.368337965887393    0.297579727429949  0.0000
  O2     O2        0.566212170421417    0.374576319933943    0.707958011527791  0.0000
  O2     O2        0.565774474676381    0.626234470462951    0.692148908702115  0.0000
  O3     O3        0.453047001605239    0.617833517531647    0.282627894520695  0.0000
  O3     O3        0.964781461065002    0.864852176237477    0.303925667123860  0.0000
  O2     O2        0.070655224885670    0.873652804015539    0.697221584267329  0.0000
  O2     O2        0.067767630037500    0.129948344949832    0.692568120826014  0.0000
  O2     O2        0.952415269584191    0.111280268852828    0.291185659000225  0.0000
  O2     O2        0.325310562221754    0.376826018945338    0.512137521404768  0.0000
  O2     O2        0.701121480999092    0.375595344864236    0.497305062494926  0.0000
  O3     O3        0.712336922360081    0.619866393646296    0.492623688963738  0.0000
  O2     O2        0.324720889182152    0.613365321442349    0.498509724815907  0.0000
  O3     O3        0.819868303336286    0.879580444018487    0.531301450690071  0.0000
  O2     O2        0.207500600310226    0.882221584047029    0.487187421563599  0.0000
  O2     O2        0.197251972060281    0.112597253693022    0.473995936762935  0.0000
  O2     O2        0.823091132261806    0.108229814751207    0.510314903062646  0.0000
  O2     O2        0.277320652997092    0.490254061212902    0.282542619769439  0.0000
  O2     O2        0.746344271614692    0.500662148928458    0.709251400968635  0.0000
  O3     O3        0.763428677199818    0.993310159335306    0.281627320511869  0.0000
  O2     O2        0.243022139798760    0.003318262370377    0.706476283375870  0.0000
  O2     O2        0.397594205773088    0.501090234772505    0.725101881282932  0.0000
  O3     O3        0.640096180953954    0.485228525133061    0.268345574791047  0.0000
  O2     O2        0.909794296417247    0.001740207666424    0.743422666665859  0.0000
  O2     O2        0.125161589635270    0.991411816826014    0.254950626422559  0.0000
