data_c00273.vasp
_audit_creation_method             Generated by GULP
_audit_author_name                 Salvador R. G. Balestra
_symmetry_space_group_name_H-M     'P 1             '
_symmetry_Int_Tables_number        1

loop_
_symmetry_equiv_pos_site_id
_symmetry_equiv_pos_as_xyz
_cell_length_a                       10.3076
_cell_length_b                       15.1707
_cell_length_c                        8.9180
_cell_angle_alpha                   89.8821
_cell_angle_beta                   104.6942
_cell_angle_gamma                   89.8367

loop_
_atom_site_label
_atom_site_type_symbol
_atom_site_fract_x
_atom_site_fract_y
_atom_site_fract_z
_atom_site_charge
  Ge     Ge        0.351599999999962    0.244500000000016    0.893900000000031  0.0000
  Ge     Ge        0.328003150081996    0.759098373733016    0.888469085642295  0.0000
  Ge     Ge        0.673305380459940    0.405217242024756    0.661125735477067  0.0000
  Ge     Ge        0.176362257586054    0.103621702438159    0.658390054518537  0.0000
  Si     Si        0.647675643958507    0.257129796640024    0.100268918932881  0.0000
  Si     Si        0.623797804902112    0.768428366572679    0.099915429255054  0.0000
  Si     Si        0.826222563198828    0.752384222867425    0.889555262191448  0.0000
  Si     Si        0.115786771170962    0.746810765249345    0.097653677859695  0.0000
  Si     Si        0.138416230463049    0.258273632758425    0.098254059408483  0.0000
  Si     Si        0.850785687719006    0.267948535384595    0.892609138741294  0.0000
  Si     Si        0.276786285964805    0.402803156019897    0.324588357883988  0.0000
  Si     Si        0.659989373068496    0.614709141743568    0.660773054077242  0.0000
  Si     Si        0.265341511217696    0.605212755380865    0.323695954362085  0.0000
  Si     Si        0.762081692947329    0.911136478556741    0.329088829134295  0.0000
  Si     Si        0.161099076883808    0.897733434111509    0.653617849141820  0.0000
  Si     Si        0.775296717041091    0.111840194111354    0.336885807853469  0.0000
  Si     Si        0.373530528543353    0.399317961103361    0.679836336417841  0.0000
  Si     Si        0.575777427929112    0.409765064126467    0.298309430551240  0.0000
  Si     Si        0.564194051452257    0.612018428926095    0.302805336316870  0.0000
  Si     Si        0.366057944134668    0.605393878240129    0.679154345220387  0.0000
  Si     Si        0.868989247877041    0.906349262923718    0.684523087485939  0.0000
  Si     Si        0.057231132554692    0.905035703656360    0.296012877799559  0.0000
  Si     Si        0.072531951792211    0.103733727204586    0.299235509051547  0.0000
  Si     Si        0.877405323000916    0.111272271174376    0.689397307855726  0.0000
  O3     O3        0.520432960089164    0.227975508069897    0.970280265915709  0.0000
  O3     O3        0.490264206334712    0.790157228166659    0.972131220727450  0.0000
  O2     O2        0.979541354473558    0.725464441236455    0.969174049077220  0.0000
  O2     O2        0.008562323713367    0.284931189531246    0.964032723726870  0.0000
  O1     O1        0.307517399272799    0.162256630492706    0.761977453673552  0.0000
  O2     O2        0.676612628535086    0.183262082547550    0.235177654988227  0.0000
  O2     O2        0.651201724217256    0.847065632543683    0.226243500967213  0.0000
  O3     O3        0.273913863203873    0.830922011043646    0.736672438005723  0.0000
  O2     O2        0.771739901398181    0.679070487388426    0.759902872583594  0.0000
  O2     O2        0.148803425050654    0.665928457695144    0.220144625051567  0.0000
  O2     O2        0.168373936513414    0.337355566973763    0.222764818924678  0.0000
  O3     O3        0.804371466911448    0.344708879361433    0.768787204038385  0.0000
  O3     O3        0.314279650121067    0.344780871833829    0.798320728700974  0.0000
  O2     O2        0.618363879546979    0.351178811455466    0.169501922343288  0.0000
  O2     O2        0.609633765947303    0.676380437368782    0.184496834959651  0.0000
  O3     O3        0.310800112958215    0.655328341798637    0.805373826975651  0.0000
  O2     O2        0.814722916964880    0.847722048314766    0.805557041447370  0.0000
  O2     O2        0.101511223501460    0.837604605468150    0.182897301401715  0.0000
  O2     O2        0.107867067597929    0.167240580287913    0.173646450831026  0.0000
  O2     O2        0.824479607298270    0.172414159003953    0.809010542275461  0.0000
  O3     O3        0.266712969047078    0.240371039327935    0.035449252413876  0.0000
  O2     O2        0.774204172001213    0.270212457518229    0.028430566338934  0.0000
  O2     O2        0.746026838068837    0.756788703185467    0.020654952300009  0.0000
  O3     O3        0.238723737536158    0.761647320630894    0.024308466850467  0.0000
  O2     O2        0.422086303340531    0.387199998566572    0.293742245964465  0.0000
  O3     O3        0.526015168630934    0.368176493518486    0.696481489807002  0.0000
  O2     O2        0.516724550571717    0.640337250776556    0.691537381041500  0.0000
  O2     O2        0.407108621879151    0.628655009598714    0.288385161639636  0.0000
  O2     O2        0.902802756683430    0.889240977951512    0.291907890389020  0.0000
  O2     O2        0.018621330260878    0.873450904992487    0.689211774820301  0.0000
  O3     O3        0.027875530306821    0.139389993103092    0.695150510218355  0.0000
  O2     O2        0.924061160754301    0.123719868936414    0.317076277814860  0.0000
  O2     O2        0.285957295595024    0.382805991012162    0.504143582075540  0.0000
  O3     O3        0.668627423475398    0.391732949722893    0.467393587037514  0.0000
  O2     O2        0.651014173122310    0.627646368379444    0.478109720874515  0.0000
  O2     O2        0.274782456587280    0.621833847523488    0.504768635498620  0.0000
  O2     O2        0.773655416902855    0.894952263462504    0.511210341760072  0.0000
  O2     O2        0.147749997165157    0.893385612055720    0.469823632853654  0.0000
  O3     O3        0.173547819741473    0.116037273749668    0.464905816056312  0.0000
  O2     O2        0.780738544817916    0.127001770171924    0.517329470965262  0.0000
  O2     O2        0.229077104185328    0.503247860671476    0.282350520910074  0.0000
  O3     O3        0.698235113211762    0.515017855787171    0.708802478980340  0.0000
  O2     O2        0.721435456901488    0.013149499584975    0.287291636615787  0.0000
  O3     O3        0.200850508505295    0.995079856157210    0.713739460356866  0.0000
  O2     O2        0.372918275042690    0.502313026634842    0.718357406919521  0.0000
  O2     O2        0.586804016979977    0.512220472293606    0.253047185647208  0.0000
  O2     O2        0.870910904409062    0.008502155830248    0.735351849045971  0.0000
  O2     O2        0.078474111198833    0.003645678740872    0.238441700945483  0.0000
