data_c00214.vasp
_audit_creation_method             Generated by GULP
_audit_author_name                 Salvador R. G. Balestra
_symmetry_space_group_name_H-M     'P 1             '
_symmetry_Int_Tables_number        1

loop_
_symmetry_equiv_pos_site_id
_symmetry_equiv_pos_as_xyz
_cell_length_a                       10.1851
_cell_length_b                       15.2155
_cell_length_c                        8.9693
_cell_angle_alpha                   89.7873
_cell_angle_beta                   105.1929
_cell_angle_gamma                   89.8774

loop_
_atom_site_label
_atom_site_type_symbol
_atom_site_fract_x
_atom_site_fract_y
_atom_site_fract_z
_atom_site_charge
  Ge     Ge        0.351599999999962    0.244500000000016    0.893900000000031  0.0000
  Ge     Ge        0.646329696429169    0.761217582031225    0.101648106958146  0.0000
  Ge     Ge        0.624682988171215    0.396656115094798    0.309945914384312  0.0000
  Ge     Ge        0.114846900516489    0.896820051312485    0.299736745574147  0.0000
  Si     Si        0.653040103298031    0.238423915802958    0.106404486782577  0.0000
  Si     Si        0.345481163473707    0.748605063250042    0.887193554847134  0.0000
  Si     Si        0.852403155823864    0.745799466701203    0.888766857127548  0.0000
  Si     Si        0.146245259449833    0.738039144819020    0.093760159500829  0.0000
  Si     Si        0.145118979495261    0.260243080573336    0.105693635487901  0.0000
  Si     Si        0.852224869681069    0.249375044064845    0.898649912544962  0.0000
  Si     Si        0.317571615340846    0.397777782294628    0.324704231324526  0.0000
  Si     Si        0.717099375825609    0.396975290331828    0.672376584989722  0.0000
  Si     Si        0.716623006639085    0.597997258860682    0.671287419209781  0.0000
  Si     Si        0.322976570814401    0.603717045538839    0.323743031248986  0.0000
  Si     Si        0.812177486937306    0.900153138813175    0.329694412732251  0.0000
  Si     Si        0.219341483460388    0.895926239747073    0.659832289693588  0.0000
  Si     Si        0.223634681811523    0.095778838509966    0.666683004673268  0.0000
  Si     Si        0.824681706150029    0.105100334983978    0.337814677796017  0.0000
  Si     Si        0.409243007882200    0.398392862202695    0.677888522147994  0.0000
  Si     Si        0.624864025100256    0.602440122064342    0.311271620741630  0.0000
  Si     Si        0.412783853587720    0.601561308404186    0.677744106170676  0.0000
  Si     Si        0.915600649886402    0.898332531399966    0.681163748534009  0.0000
  Si     Si        0.120059654506221    0.102541788644261    0.308394442120763  0.0000
  Si     Si        0.923320116134035    0.100573887679712    0.691417581665845  0.0000
  O3     O3        0.493282726436997    0.225105031774612    0.041857436509897  0.0000
  O3     O3        0.473505286363538    0.767524690612833    0.026773591574178  0.0000
  O2     O2        0.984251340247722    0.724500631673888    0.028285048957881  0.0000
  O2     O2        0.983349888622279    0.270997526486978    0.036553860420645  0.0000
  O3     O3        0.336176338498330    0.159964758661243    0.762470029573879  0.0000
  O2     O2        0.703767674472031    0.163669192534979    0.236508331485048  0.0000
  O3     O3        0.686464069569314    0.850273226383288    0.222886168712605  0.0000
  O2     O2        0.325402245155622    0.830029637339524    0.768246765713948  0.0000
  O2     O2        0.828158942571795    0.664140763186473    0.770004713506412  0.0000
  O2     O2        0.201842310804162    0.660594397400254    0.217327424222858  0.0000
  O2     O2        0.195018405619374    0.343979818702777    0.214592275663382  0.0000
  O2     O2        0.824092613480398    0.332055417188949    0.782506309109361  0.0000
  O3     O3        0.360290905419865    0.343017869208933    0.801611971430964  0.0000
  O3     O3        0.685884086178663    0.332635311365285    0.186485289149873  0.0000
  O3     O3        0.689610109859310    0.666694931350381    0.211103030308572  0.0000
  O2     O2        0.360506085969687    0.659376854622342    0.798106812007302  0.0000
  O2     O2        0.873291126714005    0.835779062381834    0.803320890327249  0.0000
  O3     O3        0.175228791855455    0.831293946223554    0.177335300773384  0.0000
  O2     O2        0.180525106121696    0.171065150868950    0.207456395673490  0.0000
  O2     O2        0.873085162594275    0.160869825639072    0.810542691094460  0.0000
  O3     O3        0.212250255389402    0.254147745903579    0.965323440223242  0.0000
  O2     O2        0.723863165140105    0.231319360943770    0.966507708914595  0.0000
  O3     O3        0.723625238687722    0.761365612087428    0.953897597341445  0.0000
  O2     O2        0.213973263505583    0.735315205100925    0.951792610975100  0.0000
  O3     O3        0.457250292183913    0.367470161751658    0.291668890118509  0.0000
  O2     O2        0.565970336837942    0.376444932926415    0.687204441019849  0.0000
  O2     O2        0.571631017789927    0.621711297283580    0.701023463153647  0.0000
  O2     O2        0.466598878535334    0.629610666199921    0.291636876429540  0.0000
  O3     O3        0.949942056041167    0.866815876898297    0.292248065804725  0.0000
  O2     O2        0.067944044744313    0.877191310559648    0.674844409073184  0.0000
  O2     O2        0.080662885178527    0.120556344885264    0.703408424122076  0.0000
  O2     O2        0.966141376962802    0.131820904161960    0.302343857879273  0.0000
  O2     O2        0.320824538671693    0.378997120597311    0.503256712456814  0.0000
  O3     O3        0.720856534949519    0.382843787087175    0.497645624338010  0.0000
  O2     O2        0.708048148041350    0.608440528595667    0.490909500297297  0.0000
  O2     O2        0.329049512857728    0.623529801968681    0.502325254139640  0.0000
  O2     O2        0.818090883644039    0.883297008175767    0.509983870787601  0.0000
  O3     O3        0.219653455946074    0.883656237677441    0.483940122883413  0.0000
  O2     O2        0.210932523690738    0.105335781613846    0.484782544247883  0.0000
  O2     O2        0.833212340361604    0.120816150324811    0.517939005942919  0.0000
  O2     O2        0.294204741590300    0.501215966280344    0.287688734430022  0.0000
  O2     O2        0.757385810960334    0.497666555816006    0.722683178425504  0.0000
  O2     O2        0.795666198359026    0.003834758137711    0.294322253569309  0.0000
  O2     O2        0.262877336246593    0.995055718367896    0.715513007399450  0.0000
  O2     O2        0.392811432218115    0.500404044352046    0.716707481456677  0.0000
  O3     O3        0.632455035886561    0.504119081202612    0.253485966777007  0.0000
  O2     O2        0.904414249099461    0.998929220554958    0.734162160728012  0.0000
  O3     O3        0.122133308744464    0.005233389752181    0.243602520703746  0.0000
