data_c00269.vasp
_audit_creation_method             Generated by GULP
_audit_author_name                 Salvador R. G. Balestra
_symmetry_space_group_name_H-M     'P 1             '
_symmetry_Int_Tables_number        1

loop_
_symmetry_equiv_pos_site_id
_symmetry_equiv_pos_as_xyz
_cell_length_a                       10.2104
_cell_length_b                       15.2379
_cell_length_c                        8.9389
_cell_angle_alpha                   89.9289
_cell_angle_beta                   105.0977
_cell_angle_gamma                   90.2577

loop_
_atom_site_label
_atom_site_type_symbol
_atom_site_fract_x
_atom_site_fract_y
_atom_site_fract_z
_atom_site_charge
  Ge     Ge        0.351599999999962    0.244500000000016    0.893900000000031  0.0000
  Ge     Ge        0.355484171858881    0.764394621464105    0.888551433297438  0.0000
  Ge     Ge        0.277761166946482    0.399490554044863    0.322380497729700  0.0000
  Ge     Ge        0.880461130348770    0.103053853826933    0.685784637551083  0.0000
  Si     Si        0.653923120617706    0.247865433746010    0.104562125949268  0.0000
  Si     Si        0.655678395550955    0.751436297479088    0.103369048770176  0.0000
  Si     Si        0.855247679638739    0.739872539341937    0.891617538903683  0.0000
  Si     Si        0.147506213722653    0.750133500261270    0.099959989720674  0.0000
  Si     Si        0.136788164657371    0.252878219638350    0.095448446670504  0.0000
  Si     Si        0.846689257369950    0.260878582096798    0.890125931926652  0.0000
  Si     Si        0.675868008874489    0.400033388156867    0.668352833233330  0.0000
  Si     Si        0.680613247509405    0.604241668493796    0.664908623194079  0.0000
  Si     Si        0.284809011501409    0.603356401483787    0.319353419386160  0.0000
  Si     Si        0.783199498834717    0.898412321662564    0.329690517380945  0.0000
  Si     Si        0.182851881276794    0.901929710833911    0.658765649058240  0.0000
  Si     Si        0.180756805801690    0.108894728076163    0.655010528206379  0.0000
  Si     Si        0.774349814238608    0.096689962916370    0.325949832099094  0.0000
  Si     Si        0.376012983216736    0.403547699699870    0.688161335549942  0.0000
  Si     Si        0.587457135628705    0.397461867723948    0.311534883718463  0.0000
  Si     Si        0.588983967010930    0.600583269743523    0.307988146894662  0.0000
  Si     Si        0.380963706402327    0.605766833166083    0.679672477687756  0.0000
  Si     Si        0.888665093596023    0.896743393843410    0.688982860960422  0.0000
  Si     Si        0.084140325228808    0.900972901405974    0.305303012833586  0.0000
  Si     Si        0.079745655688255    0.101236987314874    0.304695723667367  0.0000
  O3     O3        0.522809385770712    0.231001096190298    0.967626475993546  0.0000
  O3     O3        0.526590504524464    0.775188230185972    0.967912479562665  0.0000
  O2     O2        0.014925957704222    0.724686841336278    0.964846203526174  0.0000
  O2     O2        0.009261223414930    0.272523280005754    0.950131871379408  0.0000
  O3     O3        0.305026037910058    0.161964323005652    0.758891054144314  0.0000
  O2     O2        0.671755701978846    0.163161443687588    0.216278752555711  0.0000
  O2     O2        0.678402744031299    0.827661667698713    0.233230952194559  0.0000
  O3     O3        0.308678674580940    0.852018940085637    0.764365068421565  0.0000
  O2     O2        0.801200148204273    0.660646496772168    0.772461232302827  0.0000
  O2     O2        0.176209807107884    0.672421477256944    0.226241346754377  0.0000
  O3     O3        0.154181117920289    0.330875372165843    0.218007767848250  0.0000
  O2     O2        0.793317945857995    0.341659028509569    0.774643661485920  0.0000
  O3     O3        0.319930702684239    0.346164694658787    0.805837148813024  0.0000
  O2     O2        0.646183365440882    0.336263220692155    0.199694711331157  0.0000
  O2     O2        0.640388949991905    0.659132206720771    0.185848493125371  0.0000
  O3     O3        0.318875772680023    0.667682446075934    0.784702621205194  0.0000
  O2     O2        0.830263410857560    0.831160176174349    0.796929047016282  0.0000
  O2     O2        0.127949200438424    0.841162266187694    0.181240981916587  0.0000
  O2     O2        0.112633852528699    0.161051753397491    0.173375723096987  0.0000
  O3     O3        0.812905644346587    0.169263342980993    0.801608348124383  0.0000
  O3     O3        0.271643650054664    0.241318316598202    0.039580850835746  0.0000
  O2     O2        0.783474216269934    0.261109247158457    0.036410828466954  0.0000
  O2     O2        0.782969636273439    0.742816872231592    0.030244110976508  0.0000
  O3     O3        0.275794222702372    0.763573279872729    0.033827343154472  0.0000
  O3     O3        0.430648379026384    0.374857491197139    0.284681767973609  0.0000
  O2     O2        0.531641669878490    0.375457313628471    0.699283894442989  0.0000
  O2     O2        0.538652132642055    0.632139994995927    0.698470413258789  0.0000
  O2     O2        0.430945239610758    0.620338246335579    0.286421965564896  0.0000
  O2     O2        0.927754267074876    0.883006458229195    0.295669721395057  0.0000
  O2     O2        0.044158528290839    0.869893416889400    0.698563884146141  0.0000
  O3     O3        0.042579864890850    0.139234609048374    0.693087039133612  0.0000
  O2     O2        0.926155446985624    0.113114828505116    0.311922791320122  0.0000
  O3     O3        0.286501401261808    0.386583941987444    0.515355217210643  0.0000
  O2     O2        0.668745879011062    0.380108236383872    0.489493672260515  0.0000
  O2     O2        0.673332489353458    0.621253391461497    0.484258470201357  0.0000
  O2     O2        0.297458395110392    0.614898835457174    0.501314296939014  0.0000
  O2     O2        0.796899681274103    0.888158219678238    0.512411196826458  0.0000
  O2     O2        0.174127527289043    0.881403636533386    0.478900191412559  0.0000
  O2     O2        0.174713255876086    0.126183997786354    0.474070912856258  0.0000
  O3     O3        0.773932089671855    0.111404681414117    0.501774898210949  0.0000
  O3     O3        0.235110684092430    0.506328376866795    0.267497061145070  0.0000
  O2     O2        0.710310897228980    0.502118047242735    0.705184697950190  0.0000
  O2     O2        0.729429024798447    0.996249774754694    0.276635862988188  0.0000
  O2     O2        0.198117812499354    0.005479403151598    0.689890473437339  0.0000
  O2     O2        0.371907147779889    0.505581845593026    0.732878467385482  0.0000
  O2     O2        0.607002726662819    0.498896040407621    0.268734929596850  0.0000
  O3     O3        0.882292173594709    0.995250259815885    0.746631165209702  0.0000
  O2     O2        0.106134655394665    0.001516130332633    0.260969998789014  0.0000
