data_c00264.vasp
_audit_creation_method             Generated by GULP
_audit_author_name                 Salvador R. G. Balestra
_symmetry_space_group_name_H-M     'P 1             '
_symmetry_Int_Tables_number        1

loop_
_symmetry_equiv_pos_site_id
_symmetry_equiv_pos_as_xyz
_cell_length_a                       10.2881
_cell_length_b                       15.2319
_cell_length_c                        8.9411
_cell_angle_alpha                   90.3364
_cell_angle_beta                   105.0924
_cell_angle_gamma                   89.7403

loop_
_atom_site_label
_atom_site_type_symbol
_atom_site_fract_x
_atom_site_fract_y
_atom_site_fract_z
_atom_site_charge
  Ge     Ge        0.351599999999962    0.244500000000016    0.893900000000031  0.0000
  Ge     Ge        0.327687595144323    0.756689831930139    0.890914233928317  0.0000
  Ge     Ge        0.285754433795121    0.394373535277042    0.325118415757794  0.0000
  Ge     Ge        0.594438936221535    0.597832494596935    0.300850649957390  0.0000
  Si     Si        0.652565519197234    0.239093981360946    0.099076180314591  0.0000
  Si     Si        0.628380931054614    0.756671727475316    0.099784138505083  0.0000
  Si     Si        0.827232482791974    0.746686116658266    0.891139697883895  0.0000
  Si     Si        0.118387095576766    0.741813679243523    0.098438553524633  0.0000
  Si     Si        0.138314566170900    0.251152076203499    0.097526698679060  0.0000
  Si     Si        0.849391385959308    0.254979050180185    0.884986781289446  0.0000
  Si     Si        0.683804449973327    0.398022303838403    0.667999343681664  0.0000
  Si     Si        0.687780453252365    0.601432582033159    0.666754636118243  0.0000
  Si     Si        0.287845123887585    0.601053567070058    0.317076123803792  0.0000
  Si     Si        0.792056208220590    0.894334666845590    0.329574147410931  0.0000
  Si     Si        0.190397799117597    0.901765619073206    0.662123479695052  0.0000
  Si     Si        0.182614242671391    0.104877216276577    0.655160377246304  0.0000
  Si     Si        0.785728966608614    0.094562591056409    0.323831778877386  0.0000
  Si     Si        0.386390258718965    0.399636002957974    0.686536838640026  0.0000
  Si     Si        0.591128961011315    0.392770889870320    0.305683951250044  0.0000
  Si     Si        0.387167980415658    0.603894171367028    0.674330123793323  0.0000
  Si     Si        0.894625335130729    0.897460568824354    0.686610817387658  0.0000
  Si     Si        0.089911704876983    0.897155722298503    0.305626066761754  0.0000
  Si     Si        0.083738270483349    0.097519970402755    0.299815157752951  0.0000
  Si     Si        0.885828852592174    0.100101176043517    0.679663477963635  0.0000
  O3     O3        0.518928757549297    0.220357137348012    0.968515864776777  0.0000
  O3     O3        0.470751306034022    0.774184482413972    0.035514741289626  0.0000
  O2     O2        0.959695308726166    0.725899182911168    0.026383799295727  0.0000
  O2     O2        0.007755977283823    0.270496816450115    0.957871934822491  0.0000
  O3     O3        0.296373151113138    0.166570942372704    0.751921489247472  0.0000
  O2     O2        0.675349190153393    0.157333743117004    0.217474735814611  0.0000
  O2     O2        0.680627772825503    0.828960488287711    0.233751059624819  0.0000
  O3     O3        0.308073604280808    0.843752441592391    0.763876129637257  0.0000
  O2     O2        0.800267343353521    0.663463726821091    0.774984504587525  0.0000
  O2     O2        0.171979116643327    0.663134783559168    0.216896628072947  0.0000
  O3     O3        0.157890441813661    0.329309076718362    0.220898242121824  0.0000
  O2     O2        0.798826814216081    0.335707595591272    0.769106287262581  0.0000
  O3     O3        0.333025888020361    0.347805569222106    0.811711349677710  0.0000
  O2     O2        0.647025273409113    0.326876866981661    0.197203530656310  0.0000
  O3     O3        0.654446717322357    0.661305023565023    0.176310436598206  0.0000
  O3     O3        0.330994450971724    0.659529898144803    0.792601756247996  0.0000
  O2     O2        0.842126800189984    0.835829135626644    0.801842691483215  0.0000
  O2     O2        0.144574888332971    0.833818249348502    0.192413598204775  0.0000
  O2     O2        0.127237632712620    0.157990659082936    0.177002079988664  0.0000
  O2     O2        0.826500552122814    0.163170106791075    0.790302137921535  0.0000
  O3     O3        0.270691056321827    0.244043722835558    0.037207031362397  0.0000
  O2     O2        0.775759179441374    0.250264297368543    0.021278666307929  0.0000
  O2     O2        0.701462471969407    0.763682191395758    0.962424341236302  0.0000
  O3     O3        0.189866530378873    0.745975945132699    0.962343313511588  0.0000
  O3     O3        0.431067485689124    0.382645314132745    0.264745209946437  0.0000
  O2     O2        0.547619164869101    0.384022272942065    0.721181426051816  0.0000
  O2     O2        0.547626413763060    0.617636959766694    0.711522309888431  0.0000
  O3     O3        0.421836168716893    0.610568039312628    0.258921778896898  0.0000
  O2     O2        0.933393442467369    0.876836720165977    0.289267492417667  0.0000
  O2     O2        0.051049388197663    0.876638510344649    0.703450905408709  0.0000
  O2     O2        0.040450876868971    0.126145866840284    0.693560592091306  0.0000
  O2     O2        0.927771036099194    0.113362589708578    0.288356720888049  0.0000
  O3     O3        0.315374654647289    0.364592431088326    0.516149000508423  0.0000
  O2     O2        0.656562820223729    0.372986951024496    0.487426048017368  0.0000
  O3     O3        0.671219660373255    0.626028737047936    0.489946629244323  0.0000
  O2     O2        0.320636929614157    0.630945139916094    0.497011586225234  0.0000
  O2     O2        0.808367564206474    0.878749079496926    0.511500753179951  0.0000
  O2     O2        0.175458684251403    0.881760905272569    0.481284349494890  0.0000
  O2     O2        0.170074250053619    0.119972138281517    0.473313710147856  0.0000
  O2     O2        0.796961645319783    0.113524346394718    0.504216470249988  0.0000
  O3     O3        0.235099417517362    0.502364811670935    0.299585949874855  0.0000
  O2     O2        0.731395776457168    0.499205945818574    0.693704184931779  0.0000
  O2     O2        0.742894216963222    0.993709011877030    0.285082359105390  0.0000
  O2     O2        0.222130303955133    0.004006227565030    0.697763729524128  0.0000
  O2     O2        0.354205037704287    0.502389803346954    0.695749357245999  0.0000
  O3     O3        0.630586523156024    0.490053347031183    0.269572847507351  0.0000
  O2     O2        0.876497799650055    0.999205894826098    0.730463598805286  0.0000
  O2     O2        0.108519521516733    0.996992018230088    0.256650569587329  0.0000
