data_c00274.vasp
_audit_creation_method             Generated by GULP
_audit_author_name                 Salvador R. G. Balestra
_symmetry_space_group_name_H-M     'P 1             '
_symmetry_Int_Tables_number        1

loop_
_symmetry_equiv_pos_site_id
_symmetry_equiv_pos_as_xyz
_cell_length_a                       10.2817
_cell_length_b                       15.2252
_cell_length_c                        8.9292
_cell_angle_alpha                   90.0243
_cell_angle_beta                   104.8718
_cell_angle_gamma                   89.9786

loop_
_atom_site_label
_atom_site_type_symbol
_atom_site_fract_x
_atom_site_fract_y
_atom_site_fract_z
_atom_site_charge
  Ge     Ge        0.351599999999962    0.244500000000016    0.893900000000031  0.0000
  Ge     Ge        0.390889796944816    0.756289287310654    0.898848145496305  0.0000
  Ge     Ge        0.717244090370586    0.392039079038123    0.674160760278277  0.0000
  Ge     Ge        0.816992064528151    0.101322468970928    0.342097877062698  0.0000
  Si     Si        0.650799025742105    0.242651816912348    0.108364404627852  0.0000
  Si     Si        0.689595421201451    0.751586962450954    0.111343425528423  0.0000
  Si     Si        0.890471510091712    0.738629827589802    0.900211736912032  0.0000
  Si     Si        0.179929525066686    0.744291235396411    0.107966907455329  0.0000
  Si     Si        0.151224684854943    0.257428599299819    0.111437845869064  0.0000
  Si     Si        0.862247402663761    0.248760545043086    0.909951535927655  0.0000
  Si     Si        0.321707370778179    0.399941057503875    0.328821089520208  0.0000
  Si     Si        0.719882512363736    0.601167014324389    0.674379371543808  0.0000
  Si     Si        0.325133083906404    0.601880260304816    0.333225061633085  0.0000
  Si     Si        0.819226132317981    0.897436309229527    0.340730673029962  0.0000
  Si     Si        0.222138216337424    0.894481915907978    0.664829322293292  0.0000
  Si     Si        0.220194510544732    0.097060010715428    0.669127530710711  0.0000
  Si     Si        0.414333307036707    0.395138543956775    0.684955481304245  0.0000
  Si     Si        0.622948519208107    0.398621920403996    0.310648673502640  0.0000
  Si     Si        0.624519855720863    0.600586194874594    0.315906011850849  0.0000
  Si     Si        0.422832895996915    0.600119712245057    0.689369219902468  0.0000
  Si     Si        0.928222570806648    0.894117163357297    0.697048621782059  0.0000
  Si     Si        0.118088391029721    0.900153158677837    0.308630040337147  0.0000
  Si     Si        0.120478058943566    0.099724381176051    0.310492383996021  0.0000
  Si     Si        0.927237738293847    0.098068037235746    0.705843546969760  0.0000
  O3     O3        0.495613886977054    0.224312651521163    0.033435873830226  0.0000
  O3     O3        0.558133814748423    0.776220482913518    0.981487856662615  0.0000
  O2     O2        0.047010537742634    0.717847123677329    0.976652060156014  0.0000
  O2     O2        0.991317001212288    0.272753829241868    0.048423266450510  0.0000
  O3     O3        0.335884414821769    0.158536370211448    0.764129518181188  0.0000
  O3     O3        0.696214714902921    0.170938637053416    0.241194102217278  0.0000
  O2     O2        0.717150429115630    0.826786761353848    0.242435732201610  0.0000
  O3     O3        0.341663566958051    0.835785020980801    0.758750208449250  0.0000
  O2     O2        0.836172324929446    0.662723901164968    0.774960772984008  0.0000
  O2     O2        0.211964500618635    0.665543138775378    0.233036776542888  0.0000
  O2     O2        0.209013541094118    0.339259475758498    0.222171101393251  0.0000
  O3     O3        0.839643539834949    0.324543933801176    0.782198965410964  0.0000
  O3     O3        0.348056337649592    0.343422848333052    0.799388041221731  0.0000
  O2     O2        0.669546231888929    0.340071369543413    0.184406163673712  0.0000
  O2     O2        0.674851989236582    0.659612905982580    0.194421240147047  0.0000
  O3     O3        0.365007410848244    0.655001910264359    0.808033634949590  0.0000
  O2     O2        0.874125895797094    0.832650999153207    0.813747550786362  0.0000
  O2     O2        0.158606395792016    0.835442270665887    0.188545750270578  0.0000
  O2     O2        0.181275630942295    0.166343389857895    0.206897575489025  0.0000
  O2     O2        0.881443117875725    0.154705854583751    0.834765964981378  0.0000
  O3     O3        0.214607474987212    0.251241986191217    0.968496880258831  0.0000
  O2     O2        0.733035569788173    0.239261218005291    0.978422609989387  0.0000
  O2     O2        0.813664049232513    0.741404150864799    0.034517174229758  0.0000
  O3     O3        0.305083082912592    0.759792942429887    0.038276383248054  0.0000
  O2     O2        0.466369963831163    0.378230343140143    0.299738509725609  0.0000
  O3     O3        0.565271619864955    0.360895311976631    0.705143461469037  0.0000
  O2     O2        0.577658388878368    0.629003450618404    0.706372685543851  0.0000
  O2     O2        0.468420145393899    0.622880914595924    0.299089934046787  0.0000
  O2     O2        0.962295674186057    0.888986178758380    0.301194033447336  0.0000
  O2     O2        0.083052848919023    0.868872647819952    0.707730306348832  0.0000
  O2     O2        0.080874293602828    0.121855125359840    0.711102734577596  0.0000
  O3     O3        0.964262901473325    0.119653286656352    0.289940293811728  0.0000
  O2     O2        0.327698976412982    0.381770337222065    0.507747567361372  0.0000
  O3     O3        0.712047115759748    0.377675656528633    0.480802234253907  0.0000
  O2     O2        0.711188997335582    0.615154316558970    0.492154491456406  0.0000
  O2     O2        0.335372721818569    0.617737830327640    0.513984418831195  0.0000
  O2     O2        0.837521904088850    0.879124152988200    0.523149059062018  0.0000
  O2     O2        0.206580667815768    0.880541945129115    0.481940549206907  0.0000
  O2     O2        0.201997345858985    0.113575745857996    0.487633869634085  0.0000
  O3     O3        0.834919842553309    0.119478188147696    0.537107943324181  0.0000
  O2     O2        0.283485114021861    0.501403984302637    0.287331354349136  0.0000
  O3     O3        0.753095192233624    0.500883443885028    0.720641696529916  0.0000
  O3     O3        0.763385740274688    0.994384433004600    0.300610165697279  0.0000
  O2     O2        0.256388423194713    0.995758529856952    0.709663508269819  0.0000
  O2     O2        0.420182449712180    0.497728936895161    0.728473455462945  0.0000
  O2     O2        0.640068922376893    0.500027250241006    0.268478666778593  0.0000
  O2     O2        0.915806536825389    0.995099833161832    0.745225063699037  0.0000
  O2     O2        0.142367841159926    0.999882035646912    0.259560812320902  0.0000
