data_c00211.vasp
_audit_creation_method             Generated by GULP
_audit_author_name                 Salvador R. G. Balestra
_symmetry_space_group_name_H-M     'P 1             '
_symmetry_Int_Tables_number        1

loop_
_symmetry_equiv_pos_site_id
_symmetry_equiv_pos_as_xyz
_cell_length_a                       10.2533
_cell_length_b                       15.2367
_cell_length_c                        8.9563
_cell_angle_alpha                   90.0930
_cell_angle_beta                   105.2114
_cell_angle_gamma                   89.4433

loop_
_atom_site_label
_atom_site_type_symbol
_atom_site_fract_x
_atom_site_fract_y
_atom_site_fract_z
_atom_site_charge
  Ge     Ge        0.351599999999962    0.244500000000016    0.893900000000031  0.0000
  Ge     Ge        0.615507686602973    0.765355074348766    0.098474826248356  0.0000
  Ge     Ge        0.373100918046909    0.406627152848426    0.681763295194060  0.0000
  Ge     Ge        0.884597884547289    0.110194671385768    0.690711369862352  0.0000
  Si     Si        0.652083815172561    0.257209175639459    0.100812199440076  0.0000
  Si     Si        0.315273884650874    0.764330565458822    0.884900150099392  0.0000
  Si     Si        0.820969067116090    0.750173172607199    0.883514056512888  0.0000
  Si     Si        0.113900881003814    0.751196322560304    0.093658196379550  0.0000
  Si     Si        0.145252516453327    0.260121249648531    0.101223647422703  0.0000
  Si     Si        0.852496572162032    0.268725540785263    0.895928039757597  0.0000
  Si     Si        0.279221827282665    0.408792295369626    0.320050950338000  0.0000
  Si     Si        0.679721722770730    0.403025350917674    0.666252854015041  0.0000
  Si     Si        0.677409519586826    0.607069802685693    0.663757484835053  0.0000
  Si     Si        0.284298485376193    0.611372363299313    0.319397046691925  0.0000
  Si     Si        0.777910409457674    0.910582575860594    0.323924362130582  0.0000
  Si     Si        0.175101799493332    0.903464796836682    0.653706338541403  0.0000
  Si     Si        0.186410971325253    0.106884730732292    0.662389492855701  0.0000
  Si     Si        0.780946326201281    0.110891845219332    0.330638962066172  0.0000
  Si     Si        0.583215364193242    0.405050042747002    0.311802156931322  0.0000
  Si     Si        0.585551835730955    0.607489097777755    0.307355880356028  0.0000
  Si     Si        0.377804907975231    0.612618021016816    0.678587343654025  0.0000
  Si     Si        0.881058356546193    0.904780635287076    0.681707870519673  0.0000
  Si     Si        0.076513713631571    0.906870145066352    0.298960816786669  0.0000
  Si     Si        0.082210691916705    0.108273693180080    0.309954608875034  0.0000
  O3     O3        0.524422979591344    0.236220455238162    0.962851818624531  0.0000
  O3     O3        0.446317989044462    0.783875815989867    0.018890329663966  0.0000
  O2     O2        0.957072022422258    0.731254073994967    0.016779322686032  0.0000
  O2     O2        0.013574231334054    0.280081171982919    0.961967219016088  0.0000
  O3     O3        0.310791118836265    0.159689067833628    0.762545197020620  0.0000
  O2     O2        0.675913552781571    0.176486929411616    0.220575631381765  0.0000
  O3     O3        0.662814759271627    0.849021241723635    0.229899731270438  0.0000
  O2     O2        0.291288761067849    0.842586306044624    0.758934462335506  0.0000
  O2     O2        0.794308487266617    0.666507353315170    0.768682277106929  0.0000
  O2     O2        0.170023540396468    0.674280680553006    0.216878630869105  0.0000
  O2     O2        0.170731297342534    0.346467822663602    0.208642052233337  0.0000
  O2     O2        0.801775086453140    0.345528428690753    0.769991010787036  0.0000
  O1     O1        0.310511937103862    0.342886434851848    0.800606717182071  0.0000
  O2     O2        0.629610789744609    0.346081353938798    0.188030824455423  0.0000
  O3     O3        0.643924065081634    0.665718778422387    0.194721683981613  0.0000
  O2     O2        0.325403491923850    0.674574889295636    0.794543919865976  0.0000
  O2     O2        0.827575222781380    0.838234868976973    0.788460602198224  0.0000
  O2     O2        0.128781129844715    0.844600551735903    0.181977761136385  0.0000
  O2     O2        0.124284483564697    0.173150819356260    0.192651744108632  0.0000
  O3     O3        0.823209741191806    0.175175228178472    0.813774273603179  0.0000
  O3     O3        0.273558556213970    0.237293769989662    0.040090364861897  0.0000
  O2     O2        0.781461861909129    0.273933655088786    0.035325675975272  0.0000
  O3     O3        0.697049610056681    0.764992886743606    0.956120999467050  0.0000
  O2     O2        0.190099112402194    0.755371763163216    0.960083407143650  0.0000
  O2     O2        0.427978401429611    0.384962328719002    0.302167612762469  0.0000
  O3     O3        0.539788802624157    0.376279756009724    0.698982109608011  0.0000
  O2     O2        0.534824833905833    0.633312220913704    0.695729869044762  0.0000
  O2     O2        0.428008072838171    0.633192221631184    0.287016607283579  0.0000
  O2     O2        0.920403876318683    0.885379758569021    0.287608786385576  0.0000
  O2     O2        0.033123797748065    0.877126789920024    0.683752393508144  0.0000
  O3     O3        0.048687901577880    0.139716180734003    0.699248962551401  0.0000
  O2     O2        0.931236704989223    0.130137146334552    0.316998231612984  0.0000
  O3     O3        0.276739532935643    0.392311385418323    0.494119641034554  0.0000
  O2     O2        0.673078143446529    0.386053185333718    0.485655987068736  0.0000
  O2     O2        0.669727421688103    0.623852927461616    0.484361852093052  0.0000
  O2     O2        0.292846609173628    0.625994246659134    0.500309614705422  0.0000
  O2     O2        0.789030590606308    0.900555103004608    0.505894631020398  0.0000
  O2     O2        0.167987787356527    0.889692009880810    0.473024053233235  0.0000
  O2     O2        0.179567210381232    0.121004543848658    0.481299615274981  0.0000
  O3     O3        0.780057877048056    0.124269265334194    0.506479251754857  0.0000
  O2     O2        0.244606937416312    0.510692200761232    0.274500502934517  0.0000
  O2     O2        0.709555718202361    0.505303890018433    0.706403321556226  0.0000
  O2     O2        0.740271944853394    0.011594863774599    0.275976688621134  0.0000
  O2     O2        0.206754681619499    0.003804061914509    0.702293176891629  0.0000
  O3     O3        0.363140789478791    0.514742499234392    0.732325490035411  0.0000
  O2     O2        0.598281991824119    0.505584531124906    0.265402306185791  0.0000
  O3     O3        0.877536423121947    0.002303066735463    0.745938181901030  0.0000
  O2     O2        0.091932594677745    0.008048150441039    0.252614658877201  0.0000
