data_c00279.vasp
_audit_creation_method             Generated by GULP
_audit_author_name                 Salvador R. G. Balestra
_symmetry_space_group_name_H-M     'P 1             '
_symmetry_Int_Tables_number        1

loop_
_symmetry_equiv_pos_site_id
_symmetry_equiv_pos_as_xyz
_cell_length_a                       10.2644
_cell_length_b                       15.1896
_cell_length_c                        8.9659
_cell_angle_alpha                   90.3713
_cell_angle_beta                   104.9842
_cell_angle_gamma                   90.0263

loop_
_atom_site_label
_atom_site_type_symbol
_atom_site_fract_x
_atom_site_fract_y
_atom_site_fract_z
_atom_site_charge
  Ge     Ge        0.351599999999962    0.244500000000016    0.893900000000031  0.0000
  Ge     Ge        0.377454405374090    0.758739223388271    0.894861455489499  0.0000
  Ge     Ge        0.710398703898968    0.401115523685537    0.675104303801158  0.0000
  Ge     Ge        0.913600763360809    0.900014468843178    0.694827166581063  0.0000
  Si     Si        0.650864336413612    0.244256071111277    0.107876931838500  0.0000
  Si     Si        0.676869740702549    0.754712516331243    0.108722397877718  0.0000
  Si     Si        0.876456835327435    0.744131768939407    0.901187878833509  0.0000
  Si     Si        0.167765804747241    0.743603587428367    0.103927926888773  0.0000
  Si     Si        0.147263803784980    0.254553225419953    0.108500187591536  0.0000
  Si     Si        0.855839973748803    0.258005067541260    0.903242075047087  0.0000
  Si     Si        0.314843567136404    0.397882858505993    0.330613362266033  0.0000
  Si     Si        0.703139144449725    0.609216274861328    0.670692722834956  0.0000
  Si     Si        0.310201311853705    0.600025856692000    0.326723128581671  0.0000
  Si     Si        0.806945999542585    0.902102531592496    0.337045446620947  0.0000
  Si     Si        0.211880852292902    0.896638694834129    0.664208666051367  0.0000
  Si     Si        0.210785707815115    0.101661029804336    0.663180414964385  0.0000
  Si     Si        0.814587888467483    0.103499271845547    0.333511785793106  0.0000
  Si     Si        0.406915296064923    0.397501073463745    0.684842178059057  0.0000
  Si     Si        0.617529284275468    0.401006350976148    0.312957411575842  0.0000
  Si     Si        0.610985055003743    0.602879143505195    0.313083665836400  0.0000
  Si     Si        0.405209461902206    0.603403304060308    0.681938886518202  0.0000
  Si     Si        0.108930837654288    0.898181705507223    0.312443670713835  0.0000
  Si     Si        0.113074213331668    0.098147483213407    0.308329303706127  0.0000
  Si     Si        0.917871845712303    0.108538175024420    0.690228068610270  0.0000
  O3     O3        0.495822890531544    0.223316593863703    0.033917594333540  0.0000
  O3     O3        0.546689797201561    0.773863128475940    0.974252307832064  0.0000
  O2     O2        0.034520768620750    0.721748398175729    0.969006060398735  0.0000
  O2     O2        0.988470069461304    0.271943876770776    0.041751268401284  0.0000
  O3     O3        0.331619386434878    0.159759662749195    0.760038789385257  0.0000
  O2     O2        0.705630293613943    0.169191097142641    0.233732142050673  0.0000
  O2     O2        0.701223362221204    0.837727076131714    0.225410743825605  0.0000
  O3     O3        0.335531148087962    0.843018097411656    0.764008436229617  0.0000
  O2     O2        0.818350201142819    0.674105990086512    0.764803103235198  0.0000
  O2     O2        0.196749898834392    0.661836366102434    0.222085897719728  0.0000
  O2     O2        0.205556336550180    0.334169326683711    0.225092428742305  0.0000
  O3     O3        0.837284308438879    0.340516462418162    0.790660647618831  0.0000
  O3     O3        0.347263762584810    0.344719852457192    0.803549298317524  0.0000
  O2     O2        0.665757041018534    0.339831626012159    0.191146367787310  0.0000
  O2     O2        0.662287654289736    0.665758810387562    0.199041377112539  0.0000
  O3     O3        0.343695787360151    0.659164926398776    0.796716753806743  0.0000
  O3     O3        0.857574264733274    0.840335887250210    0.827913811271966  0.0000
  O2     O2        0.146140595605505    0.832809684740959    0.191104498793897  0.0000
  O2     O2        0.170255298849537    0.161897377478436    0.198892283404089  0.0000
  O2     O2        0.861166109691720    0.170292176135669    0.803594247057898  0.0000
  O3     O3        0.215518560310298    0.248635336622844    0.970442340761007  0.0000
  O2     O2        0.727953054027178    0.247612469584742    0.974041691719126  0.0000
  O2     O2        0.803989020446809    0.738823391169473    0.038797196548783  0.0000
  O3     O3        0.293705686396227    0.761127035652200    0.036265214567809  0.0000
  O2     O2        0.461721306928360    0.378807846296058    0.304980764197988  0.0000
  O3     O3        0.558674633314338    0.365786458655035    0.701801111115905  0.0000
  O2     O2        0.559064459500731    0.635951958906301    0.699701762916467  0.0000
  O2     O2        0.453581783423682    0.622318095360414    0.293970188056071  0.0000
  O2     O2        0.956776962708762    0.883127719438602    0.320784639204012  0.0000
  O3     O3        0.074276684058077    0.863942513940128    0.699756558344777  0.0000
  O2     O2        0.071701645017484    0.135402728125282    0.697725653181638  0.0000
  O2     O2        0.957401718784419    0.120426457628359    0.296076065985652  0.0000
  O2     O2        0.318852349651965    0.381435008508466    0.508845021084259  0.0000
  O3     O3        0.708786896162951    0.385981859066438    0.483451344497208  0.0000
  O2     O2        0.695523535215369    0.618629898062625    0.489116597772225  0.0000
  O2     O2        0.318049356652174    0.617826200757393    0.505988485455513  0.0000
  O3     O3        0.806883548505338    0.886013414420427    0.512347638658342  0.0000
  O2     O2        0.205508658578756    0.883318064572926    0.482990827277544  0.0000
  O2     O2        0.201898257656431    0.112392164401613    0.482411475898536  0.0000
  O2     O2        0.827000792077634    0.119837654416891    0.514558407597988  0.0000
  O2     O2        0.271888008935138    0.498332436457134    0.284627632712221  0.0000
  O3     O3        0.739429004336580    0.510465890947104    0.723504672757763  0.0000
  O2     O2        0.766462449545571    0.003186209598081    0.290496230989861  0.0000
  O2     O2        0.230540683181200    0.999655470673828    0.709064650590109  0.0000
  O2     O2        0.407505058512705    0.501013841322584    0.724557331603572  0.0000
  O2     O2        0.629987251909380    0.502352844276366    0.264337443044829  0.0000
  O3     O3        0.911769991240729    0.009404842887437    0.744752975657477  0.0000
  O2     O2        0.126804426182098    0.997399877945561    0.255841208004652  0.0000
