data_c00287.vasp
_audit_creation_method             Generated by GULP
_audit_author_name                 Salvador R. G. Balestra
_symmetry_space_group_name_H-M     'P 1             '
_symmetry_Int_Tables_number        1

loop_
_symmetry_equiv_pos_site_id
_symmetry_equiv_pos_as_xyz
_cell_length_a                       10.2516
_cell_length_b                       15.2190
_cell_length_c                        8.9726
_cell_angle_alpha                   89.6254
_cell_angle_beta                   105.1063
_cell_angle_gamma                   90.1929

loop_
_atom_site_label
_atom_site_type_symbol
_atom_site_fract_x
_atom_site_fract_y
_atom_site_fract_z
_atom_site_charge
  Ge     Ge        0.351599999999962    0.244500000000016    0.893900000000031  0.0000
  Ge     Ge        0.371686098770616    0.756348056068262    0.885750144494714  0.0000
  Ge     Ge        0.801787669808582    0.906939811962110    0.325893198625530  0.0000
  Ge     Ge        0.619091907609757    0.404132514462037    0.306663992868901  0.0000
  Si     Si        0.651288537669723    0.248141125107299    0.102831804202070  0.0000
  Si     Si        0.670994924687495    0.760250925177347    0.098926881720151  0.0000
  Si     Si        0.875960407122487    0.746435483316357    0.896726693789340  0.0000
  Si     Si        0.168954516288988    0.748043666471984    0.102929832392373  0.0000
  Si     Si        0.141849801099847    0.260970482926467    0.101982819937639  0.0000
  Si     Si        0.849982637695684    0.256331986180657    0.894046851318901  0.0000
  Si     Si        0.311619123354379    0.400513948719230    0.321404996765536  0.0000
  Si     Si        0.711840212222101    0.401992560585868    0.667280292480623  0.0000
  Si     Si        0.705377147119814    0.606427546085491    0.672546224079631  0.0000
  Si     Si        0.313271055886909    0.604237781922145    0.324814425578087  0.0000
  Si     Si        0.205617421974033    0.898961622449233    0.656010237214548  0.0000
  Si     Si        0.213298255455144    0.101391893602871    0.662481361775330  0.0000
  Si     Si        0.813437583928209    0.110586388626408    0.334066537580371  0.0000
  Si     Si        0.408468583685747    0.398010574443753    0.675831555213114  0.0000
  Si     Si        0.615281036463796    0.610315612706730    0.314458706392281  0.0000
  Si     Si        0.404362913430054    0.600939740737064    0.680716431902187  0.0000
  Si     Si        0.909401967388265    0.901950430959932    0.687618882298898  0.0000
  Si     Si        0.107145250130650    0.902497287785128    0.300930365677291  0.0000
  Si     Si        0.112773488510414    0.103812318401602    0.307173878999141  0.0000
  Si     Si        0.918422055501723    0.105286842714679    0.690617167515758  0.0000
  O3     O3        0.494962620868138    0.225185898865409    0.037656741134666  0.0000
  O3     O3        0.542352704631999    0.769778094898811    0.957474616070756  0.0000
  O2     O2        0.033420432199505    0.726120132696197    0.971582412726275  0.0000
  O2     O2        0.982909793844899    0.276672189385885    0.028872385989772  0.0000
  O3     O3        0.331457136813946    0.159454214644073    0.763405565295163  0.0000
  O2     O2        0.708641215761070    0.182712973164464    0.246201765453644  0.0000
  O3     O3        0.679826553622496    0.842894931954455    0.210376192104864  0.0000
  O3     O3        0.322692399433988    0.839201091245805    0.752558102100654  0.0000
  O2     O2        0.819224589894632    0.668009359885514    0.777736123540626  0.0000
  O2     O2        0.197470524594440    0.666921429324472    0.224246617573589  0.0000
  O2     O2        0.193327944936424    0.341620652147016    0.217247768427635  0.0000
  O2     O2        0.822000796547515    0.340237377008503    0.779807479871562  0.0000
  O3     O3        0.358565603115757    0.341852401893328    0.797844860494356  0.0000
  O3     O3        0.672378384023359    0.345509597324574    0.171240936557963  0.0000
  O2     O2        0.669983373187423    0.674129334522109    0.203274876675237  0.0000
  O3     O3        0.340494480320211    0.656601049648407    0.791879694931449  0.0000
  O2     O2        0.859538832899033    0.839930538040818    0.807515143512909  0.0000
  O2     O2        0.158853644986668    0.839885594012615    0.186225265897630  0.0000
  O2     O2        0.167602982806316    0.168995241156030    0.196515521194831  0.0000
  O2     O2        0.865072977692265    0.167443967315894    0.804419754570268  0.0000
  O3     O3        0.214577738825324    0.255715233705177    0.967199162608804  0.0000
  O2     O2        0.724801790152901    0.238741685241712    0.966434977021670  0.0000
  O2     O2        0.802018503583479    0.752803191695076    0.032445334648683  0.0000
  O3     O3        0.294121571538780    0.759624125898227    0.031315036424539  0.0000
  O3     O3        0.451771456148738    0.376382654239623    0.285835500111479  0.0000
  O2     O2        0.563863331210960    0.376154384652030    0.684415228204771  0.0000
  O2     O2        0.561726623148565    0.628143779507623    0.705355483973565  0.0000
  O2     O2        0.456163568702457    0.627849759158235    0.291240556086409  0.0000
  O3     O3        0.953163188775591    0.881403271173494    0.288818756015334  0.0000
  O2     O2        0.061841147517481    0.874346375332992    0.688320080902784  0.0000
  O2     O2        0.073393798299836    0.129589742616463    0.700982164092593  0.0000
  O2     O2        0.957472927375947    0.125149457274055    0.297189431567459  0.0000
  O2     O2        0.320027238821177    0.381494420853699    0.501002606620117  0.0000
  O3     O3        0.714709121055759    0.385474431233303    0.492854276349842  0.0000
  O2     O2        0.696496317514697    0.625361021179327    0.492887805689544  0.0000
  O2     O2        0.322659646231673    0.619809911240655    0.504054252928617  0.0000
  O3     O3        0.812121230960075    0.889600781102390    0.518864344607644  0.0000
  O2     O2        0.195643781727111    0.886450169159231    0.475490846650960  0.0000
  O2     O2        0.202057226408024    0.116958039708684    0.481730743877774  0.0000
  O2     O2        0.828270966932124    0.120083754675284    0.516655110836708  0.0000
  O2     O2        0.277330784453630    0.502914256351077    0.281254464474692  0.0000
  O2     O2        0.743831286157429    0.504375197427463    0.710472262639693  0.0000
  O3     O3        0.758816474673526    0.014890166953652    0.280524182411737  0.0000
  O2     O2        0.242059975267144    0.999478376542789    0.704368681049953  0.0000
  O2     O2        0.394988379009462    0.498953493494103    0.720689572478388  0.0000
  O3     O3        0.636091960129889    0.512781782788474    0.263615772128581  0.0000
  O2     O2        0.906040346756602    0.003677482568329    0.739178972806157  0.0000
  O2     O2        0.124883040130043    0.003920035363491    0.252924136881783  0.0000
