data_c00232.vasp
_audit_creation_method             Generated by GULP
_audit_author_name                 Salvador R. G. Balestra
_symmetry_space_group_name_H-M     'P 1             '
_symmetry_Int_Tables_number        1

loop_
_symmetry_equiv_pos_site_id
_symmetry_equiv_pos_as_xyz
_cell_length_a                       10.2130
_cell_length_b                       15.2296
_cell_length_c                        8.9424
_cell_angle_alpha                   90.3849
_cell_angle_beta                   104.9385
_cell_angle_gamma                   89.8909

loop_
_atom_site_label
_atom_site_type_symbol
_atom_site_fract_x
_atom_site_fract_y
_atom_site_fract_z
_atom_site_charge
  Ge     Ge        0.351599999999962    0.244500000000016    0.893900000000031  0.0000
  Ge     Ge        0.344527222270066    0.752555419815532    0.900465737194675  0.0000
  Ge     Ge        0.844263092589011    0.747158800849404    0.899761230904673  0.0000
  Ge     Ge        0.621254834761686    0.596619401183929    0.306657160729631  0.0000
  Si     Si        0.650418938208197    0.234779586714540    0.108195139245544  0.0000
  Si     Si        0.641232045167618    0.759494108213725    0.108867848503283  0.0000
  Si     Si        0.139116431973455    0.736629591273488    0.110748600503595  0.0000
  Si     Si        0.142959230969548    0.255464408069504    0.104348134832978  0.0000
  Si     Si        0.850801611497733    0.251775919321247    0.897273173031175  0.0000
  Si     Si        0.315812000239115    0.394418738755158    0.330286896919145  0.0000
  Si     Si        0.710043030178887    0.394242673382609    0.671181561043413  0.0000
  Si     Si        0.717121128211267    0.596922215082692    0.671045258492075  0.0000
  Si     Si        0.315002911484696    0.598841284207660    0.329531272471741  0.0000
  Si     Si        0.817890187469092    0.895202680674158    0.337343864471245  0.0000
  Si     Si        0.216559233036709    0.898455233119082    0.668342906671587  0.0000
  Si     Si        0.217519805158740    0.100322697098703    0.660997638367735  0.0000
  Si     Si        0.817146880503191    0.097395635412100    0.333225413419951  0.0000
  Si     Si        0.410774500316601    0.396749237235737    0.684626076214495  0.0000
  Si     Si        0.618263501229828    0.392089860688322    0.311725727476877  0.0000
  Si     Si        0.415120496407650    0.601633433458292    0.684249100380188  0.0000
  Si     Si        0.919394316488295    0.898929253660623    0.692620379023833  0.0000
  Si     Si        0.116666011039226    0.896446426935671    0.309420920641830  0.0000
  Si     Si        0.116050190356032    0.096421084911174    0.304475060614890  0.0000
  Si     Si        0.919809488714184    0.103802597392065    0.686314404535338  0.0000
  O3     O3        0.492687560885169    0.220301133434506    0.037565263613272  0.0000
  O3     O3        0.480526388857943    0.772618444166479    0.055319338407438  0.0000
  O3     O3        0.979069844158123    0.724674257890253    0.053709422613947  0.0000
  O2     O2        0.983580766010103    0.273535751403659    0.033151782036324  0.0000
  O3     O3        0.333359851565769    0.162578298638848    0.755583849061295  0.0000
  O2     O2        0.701561503488813    0.154621760608908    0.223568246337357  0.0000
  O2     O2        0.701530104888617    0.833766525423792    0.237214854620188  0.0000
  O3     O3        0.330357524798687    0.836521749101577    0.767914933280334  0.0000
  O3     O3        0.829465691238862    0.658792636460359    0.775174242910924  0.0000
  O2     O2        0.195455704249008    0.656569159948606    0.225340814539285  0.0000
  O2     O2        0.200145644761609    0.334150402057328    0.224210620185209  0.0000
  O2     O2        0.823799821016076    0.331383001993505    0.774720388405119  0.0000
  O3     O3        0.356545881866646    0.344926765465580    0.808334624080421  0.0000
  O2     O2        0.676433224179661    0.325238861164681    0.206065307745398  0.0000
  O3     O3        0.679228833237602    0.664516645540354    0.186306691648293  0.0000
  O3     O3        0.363215591040831    0.655004705261427    0.809098885124233  0.0000
  O3     O3        0.863802391002822    0.845050794709072    0.812443727395002  0.0000
  O2     O2        0.173696294764480    0.829831447581727    0.202310378859919  0.0000
  O2     O2        0.167307533769082    0.162064494363622    0.192714829454036  0.0000
  O2     O2        0.867008881467831    0.161851006390032    0.808305305539708  0.0000
  O3     O3        0.212528524938810    0.251077513136104    0.966190902948177  0.0000
  O2     O2        0.724660061989701    0.239385673501593    0.970810145792152  0.0000
  O3     O3        0.700078781168910    0.764916754709847    0.960803421398299  0.0000
  O3     O3        0.201332276419982    0.739255622252575    0.964789494434960  0.0000
  O2     O2        0.459059585916792    0.372721886674206    0.293931215479944  0.0000
  O2     O2        0.566292446256266    0.368653912596201    0.701123509877814  0.0000
  O2     O2        0.571178268448285    0.625816302704309    0.695379963419750  0.0000
  O3     O3        0.453137878449244    0.622346732233163    0.287572480835563  0.0000
  O2     O2        0.958035821559926    0.876930729560531    0.291283186471497  0.0000
  O2     O2        0.076337157285190    0.874130857226056    0.710619429946469  0.0000
  O2     O2        0.075997606075995    0.126937898155770    0.699162164438344  0.0000
  O2     O2        0.958771788785232    0.115179516695403    0.292004155990599  0.0000
  O2     O2        0.323939114573501    0.375368396180506    0.509570308720684  0.0000
  O2     O2        0.702678111504259    0.381757299625757    0.490150589825778  0.0000
  O3     O3        0.716195355708649    0.609790693740292    0.493995440411361  0.0000
  O2     O2        0.326987450709693    0.620619292785941    0.509625901961174  0.0000
  O2     O2        0.834761835132476    0.875179537747103    0.517778085315562  0.0000
  O2     O2        0.200473529497665    0.883195891993211    0.486179274203397  0.0000
  O2     O2        0.204251048806357    0.111846166138064    0.479038662170936  0.0000
  O2     O2        0.830441782328271    0.122630816344866    0.512168745486512  0.0000
  O2     O2        0.279880164498107    0.496246721476742    0.293696813747456  0.0000
  O2     O2        0.747084320861318    0.495103205530875    0.718630857110364  0.0000
  O2     O2        0.774561865108555    0.996054526304544    0.302739519343274  0.0000
  O2     O2        0.253888003006125    0.999817598824389    0.709799373359554  0.0000
  O2     O2        0.402917519571551    0.499399099525079    0.720795913537927  0.0000
  O3     O3        0.635021764653045    0.488780099469135    0.252938208621353  0.0000
  O2     O2        0.905522199573285    0.002154007451161    0.726126015215715  0.0000
  O2     O2        0.135033809661157    0.995765892483457    0.254701481829818  0.0000
