data_c00231.vasp
_audit_creation_method             Generated by GULP
_audit_author_name                 Salvador R. G. Balestra
_symmetry_space_group_name_H-M     'P 1             '
_symmetry_Int_Tables_number        1

loop_
_symmetry_equiv_pos_site_id
_symmetry_equiv_pos_as_xyz
_cell_length_a                       10.2302
_cell_length_b                       15.2224
_cell_length_c                        8.9580
_cell_angle_alpha                   89.9424
_cell_angle_beta                   104.9761
_cell_angle_gamma                   89.9651

loop_
_atom_site_label
_atom_site_type_symbol
_atom_site_fract_x
_atom_site_fract_y
_atom_site_fract_z
_atom_site_charge
  Ge     Ge        0.351599999999962    0.244500000000016    0.893900000000031  0.0000
  Ge     Ge        0.394714383742581    0.759204933403942    0.895560252717487  0.0000
  Ge     Ge        0.893442520979909    0.740216886211469    0.896595616061388  0.0000
  Ge     Ge        0.620418497936059    0.397171825177482    0.304981082462582  0.0000
  Si     Si        0.651957528398502    0.238239317191771    0.101923281156481  0.0000
  Si     Si        0.690047727634674    0.755976175216923    0.108216650298327  0.0000
  Si     Si        0.189775009810141    0.746854466999948    0.105461925078790  0.0000
  Si     Si        0.142494701409872    0.258667664467906    0.103304687042457  0.0000
  Si     Si        0.851487379637530    0.251049902672916    0.894774432287779  0.0000
  Si     Si        0.311007130721137    0.398708274959172    0.324191190481878  0.0000
  Si     Si        0.712468665826576    0.394168448482002    0.666921874056027  0.0000
  Si     Si        0.716760312554524    0.599647055046451    0.667773395050007  0.0000
  Si     Si        0.318766333651202    0.600407959070228    0.331052527959982  0.0000
  Si     Si        0.819093626478883    0.901263199137655    0.332321586278623  0.0000
  Si     Si        0.217385143170606    0.896599266869806    0.661572472292702  0.0000
  Si     Si        0.219080946075348    0.100593467158810    0.660992306727919  0.0000
  Si     Si        0.819081227493985    0.101562115692742    0.331765237419829  0.0000
  Si     Si        0.412219062561158    0.396945896780442    0.680449113284305  0.0000
  Si     Si        0.621407227786451    0.601490305126407    0.310315038448965  0.0000
  Si     Si        0.418345231235247    0.601306691283389    0.686228819510931  0.0000
  Si     Si        0.920976203448758    0.899250715587044    0.688329153866041  0.0000
  Si     Si        0.118273391567440    0.899957398988373    0.305470675092553  0.0000
  Si     Si        0.119280247310091    0.100417618991183    0.305996207028701  0.0000
  Si     Si        0.923454961268114    0.103485298016986    0.686537201241050  0.0000
  O3     O3        0.493181694915963    0.222856554857263    0.039067631591789  0.0000
  O3     O3        0.566027435380829    0.776845395495556    0.963978274964378  0.0000
  O3     O3        0.065398763277142    0.723572130925532    0.963586329325291  0.0000
  O2     O2        0.982348872529168    0.272230620497476    0.032536228738822  0.0000
  O3     O3        0.335443871669635    0.159874674090634    0.762140922072890  0.0000
  O2     O2        0.705456150226573    0.164636343765157    0.232386666883980  0.0000
  O2     O2        0.708683557850404    0.836558172448946    0.229595150110932  0.0000
  O3     O3        0.338380273972774    0.840189339090306    0.760053088562885  0.0000
  O3     O3        0.837319006007791    0.655457724302088    0.769127388691969  0.0000
  O2     O2        0.210979442567685    0.667411362551089    0.229507357701016  0.0000
  O2     O2        0.193251495895837    0.338209379783459    0.222263913261200  0.0000
  O2     O2        0.825212054775959    0.334438411361116    0.780168230168091  0.0000
  O3     O3        0.357547531480261    0.343284791279181    0.801870020922848  0.0000
  O3     O3        0.679252484081293    0.333310743225616    0.179521035986967  0.0000
  O2     O2        0.663321037455174    0.667898229412983    0.193894081303802  0.0000
  O3     O3        0.361962629620419    0.658719494924218    0.802870469763556  0.0000
  O3     O3        0.862087849795255    0.840196320557054    0.800854711941256  0.0000
  O2     O2        0.161563180850935    0.837414197311042    0.184528835253142  0.0000
  O2     O2        0.171435461090275    0.165678968772268    0.193800807235993  0.0000
  O2     O2        0.869032966925510    0.162724111347510    0.804047068410156  0.0000
  O3     O3        0.213561597090135    0.256314155850506    0.966384334278425  0.0000
  O2     O2        0.723862118055546    0.232498059134893    0.963004647472858  0.0000
  O3     O3        0.823225073904146    0.740644607725259    0.050284663112166  0.0000
  O3     O3        0.323071671782225    0.761953634091656    0.047916865773705  0.0000
  O3     O3        0.449404410177995    0.378415738147640    0.279397468940147  0.0000
  O2     O2        0.567074229931758    0.369970298316913    0.694359164205048  0.0000
  O2     O2        0.576298533983064    0.626765834934796    0.707336278506757  0.0000
  O2     O2        0.462143065207478    0.612180551946221    0.292692379851194  0.0000
  O2     O2        0.960565132406026    0.885395632647609    0.290585259170918  0.0000
  O2     O2        0.077492061802243    0.871625175640985    0.704557153304080  0.0000
  O2     O2        0.079123276716216    0.127876314940167    0.701424220672848  0.0000
  O2     O2        0.961028232040836    0.117611784235624    0.290429770140032  0.0000
  O2     O2        0.326452990659576    0.378734679469940    0.504935931438988  0.0000
  O3     O3        0.709569848207152    0.374134304954056    0.491819738213710  0.0000
  O2     O2        0.704389441189489    0.618372691993144    0.487112518118648  0.0000
  O2     O2        0.333609514157191    0.621050532223307    0.510681566235694  0.0000
  O2     O2        0.834856697347741    0.882117228688560    0.512549037760613  0.0000
  O2     O2        0.202971423830784    0.879614762277979    0.479949871584329  0.0000
  O2     O2        0.205352788610600    0.118123070127183    0.480420389591415  0.0000
  O2     O2        0.834835077335642    0.121230374745951    0.512292624665023  0.0000
  O2     O2        0.268754432304650    0.500690313656041    0.290595727536781  0.0000
  O2     O2        0.745881984968652    0.496573595937347    0.702882199009086  0.0000
  O2     O2        0.770946728510090    0.001387112112767    0.293615296474449  0.0000
  O2     O2        0.250250303246498    0.998676904234719    0.699705003661708  0.0000
  O2     O2        0.404611089441593    0.499163429800441    0.722459981359719  0.0000
  O3     O3        0.649601000304769    0.504235087248960    0.261415378874123  0.0000
  O2     O2        0.911610086916756    0.001617691929583    0.730405086474747  0.0000
  O2     O2        0.142916584753310    0.000315954408944    0.259683031762113  0.0000
