data_c00258.vasp
_audit_creation_method             Generated by GULP
_audit_author_name                 Salvador R. G. Balestra
_symmetry_space_group_name_H-M     'P 1             '
_symmetry_Int_Tables_number        1

loop_
_symmetry_equiv_pos_site_id
_symmetry_equiv_pos_as_xyz
_cell_length_a                       10.2214
_cell_length_b                       15.2488
_cell_length_c                        8.9207
_cell_angle_alpha                   90.2793
_cell_angle_beta                   105.0677
_cell_angle_gamma                   90.2636

loop_
_atom_site_label
_atom_site_type_symbol
_atom_site_fract_x
_atom_site_fract_y
_atom_site_fract_z
_atom_site_charge
  Ge     Ge        0.351599999999962    0.244500000000016    0.893900000000031  0.0000
  Ge     Ge        0.350661996886589    0.761426990205681    0.882366439293870  0.0000
  Ge     Ge        0.281788610757324    0.394504740198218    0.325313151404902  0.0000
  Ge     Ge        0.775507713119746    0.896164159959123    0.328119626166281  0.0000
  Si     Si        0.653501677982183    0.247000519685280    0.102277801806543  0.0000
  Si     Si        0.649117550665281    0.746962752850957    0.096478672167882  0.0000
  Si     Si        0.854097963547281    0.743428346025957    0.892569099998352  0.0000
  Si     Si        0.147319327160123    0.745497284432950    0.098883518684725  0.0000
  Si     Si        0.136590908947888    0.250004683285730    0.096613661677945  0.0000
  Si     Si        0.848549037014670    0.260605626942491    0.885684456493892  0.0000
  Si     Si        0.681179239122131    0.402187699334700    0.666709968072241  0.0000
  Si     Si        0.680168576426109    0.606557729303994    0.660300990816668  0.0000
  Si     Si        0.284355134092477    0.597874131488952    0.311703466929465  0.0000
  Si     Si        0.181898767426540    0.903718025864672    0.660907188318686  0.0000
  Si     Si        0.177045120369537    0.108569995242372    0.651266734767364  0.0000
  Si     Si        0.774268032892171    0.096915177208929    0.323714232936225  0.0000
  Si     Si        0.381573842416818    0.404035458695801    0.690618835638890  0.0000
  Si     Si        0.589192378143854    0.395268621520466    0.310757645408534  0.0000
  Si     Si        0.586594644749613    0.598887106610638    0.303270505950885  0.0000
  Si     Si        0.379574970941633    0.604194105482678    0.673165246960394  0.0000
  Si     Si        0.885858072495938    0.901808364986655    0.694530595839423  0.0000
  Si     Si        0.084012106043759    0.896764217135354    0.305082117873852  0.0000
  Si     Si        0.076989756221232    0.096828560231986    0.297591377771090  0.0000
  Si     Si        0.881567937563060    0.103921365465477    0.683121134430421  0.0000
  O3     O3        0.520796384406156    0.224302983114337    0.970198361112621  0.0000
  O3     O3        0.522992199428965    0.766576767037248    0.954636419558355  0.0000
  O2     O2        0.012645016904347    0.724005729865764    0.963446536252056  0.0000
  O2     O2        0.009098188469230    0.274297208359294    0.954529267775298  0.0000
  O3     O3        0.296758848597336    0.166764552808478    0.750554489383124  0.0000
  O2     O2        0.675707487305165    0.170163858275168    0.229577553785179  0.0000
  O3     O3        0.660417306953725    0.821925294932786    0.225418977525818  0.0000
  O3     O3        0.304570417453967    0.852798581946057    0.769005431883967  0.0000
  O2     O2        0.796291957882055    0.668407935452392    0.764169042287963  0.0000
  O2     O2        0.172372042649768    0.665029269998887    0.219428760147698  0.0000
  O3     O3        0.156706564221141    0.324837541948464    0.226308842924378  0.0000
  O2     O2        0.796103927607699    0.343446029021387    0.776239661968644  0.0000
  O3     O3        0.330060010803818    0.347605831491795    0.812544706749868  0.0000
  O2     O2        0.645788198418782    0.338651530206781    0.189778772435869  0.0000
  O2     O2        0.639623759190824    0.653723253558096    0.178413330476445  0.0000
  O3     O3        0.310424272416562    0.668152709744879    0.768691901392582  0.0000
  O2     O2        0.835924073270738    0.839564241620284    0.814180475347540  0.0000
  O2     O2        0.136224562882648    0.835661651278363    0.187557748020477  0.0000
  O2     O2        0.113764576651100    0.156148385707279    0.167866192840749  0.0000
  O2     O2        0.820249290395664    0.169769045318308    0.787939460640151  0.0000
  O3     O3        0.270819547721488    0.241898516719635    0.038632323619851  0.0000
  O2     O2        0.779458793296807    0.254701172418283    0.026792071406097  0.0000
  O2     O2        0.781805430609723    0.743358722066536    0.031449904135023  0.0000
  O3     O3        0.275187465144315    0.756551704084194    0.031056887725660  0.0000
  O3     O3        0.435657081970461    0.366989218684024    0.292562140999295  0.0000
  O2     O2        0.536274317958601    0.377524323091549    0.695126420847410  0.0000
  O2     O2        0.536391133000264    0.632209144496158    0.691046833837597  0.0000
  O2     O2        0.429634458981202    0.621622690080728    0.281825978620995  0.0000
  O3     O3        0.926635815196155    0.880081497441836    0.282732667845758  0.0000
  O2     O2        0.042311578864913    0.879363550060389    0.704748529874273  0.0000
  O2     O2        0.037392746603199    0.130772185739850    0.696771717092624  0.0000
  O2     O2        0.918775984925216    0.102429145071426    0.285221166069429  0.0000
  O3     O3        0.288593301892232    0.386680949494709    0.518967954321470  0.0000
  O2     O2        0.676964757745058    0.381263357129119    0.487977772146185  0.0000
  O2     O2        0.672895074787363    0.621498693268474    0.478821355666154  0.0000
  O2     O2        0.295738955614899    0.606097552126083    0.494218959601313  0.0000
  O3     O3        0.793959349058549    0.882972357365284    0.523961458806486  0.0000
  O2     O2        0.165654746680888    0.876556663443621    0.482015164080460  0.0000
  O2     O2        0.160712518561042    0.127934995941576    0.469259818739500  0.0000
  O2     O2        0.792691301491777    0.112407892973075    0.506938675406599  0.0000
  O3     O3        0.242040487499685    0.499769766557009    0.258626770451524  0.0000
  O2     O2        0.714674197047459    0.504948081141700    0.703396765140771  0.0000
  O3     O3        0.714722804079482    0.000789935641975    0.279191026120528  0.0000
  O2     O2        0.211450055577209    0.006860279242949    0.684632222868956  0.0000
  O2     O2        0.376428188585788    0.505889150990948    0.736740150847239  0.0000
  O2     O2        0.600032959642005    0.496732240567580    0.266394358524621  0.0000
  O2     O2        0.872837128392292    0.003971228543089    0.740190678574870  0.0000
  O2     O2        0.113438150734841    0.997088576051019    0.265490244371400  0.0000
