data_c00255.vasp
_audit_creation_method             Generated by GULP
_audit_author_name                 Salvador R. G. Balestra
_symmetry_space_group_name_H-M     'P 1             '
_symmetry_Int_Tables_number        1

loop_
_symmetry_equiv_pos_site_id
_symmetry_equiv_pos_as_xyz
_cell_length_a                       10.2846
_cell_length_b                       15.2237
_cell_length_c                        8.9117
_cell_angle_alpha                   89.8976
_cell_angle_beta                   104.8965
_cell_angle_gamma                   89.9434

loop_
_atom_site_label
_atom_site_type_symbol
_atom_site_fract_x
_atom_site_fract_y
_atom_site_fract_z
_atom_site_charge
  Ge     Ge        0.351599999999962    0.244500000000016    0.893900000000031  0.0000
  Ge     Ge        0.357780512387431    0.753743680700562    0.888351924999629  0.0000
  Ge     Ge        0.312586110835284    0.398901749940626    0.319466381321300  0.0000
  Ge     Ge        0.715298535831584    0.396224720621221    0.664464997055824  0.0000
  Si     Si        0.651136373985592    0.240046433015182    0.099011631093713  0.0000
  Si     Si        0.653850450128278    0.758824224321538    0.101277376231942  0.0000
  Si     Si        0.854265379372905    0.745423219431924    0.889020321192507  0.0000
  Si     Si        0.145891826824150    0.743228498647537    0.094156606600488  0.0000
  Si     Si        0.138863556831807    0.257153364640219    0.100237768684376  0.0000
  Si     Si        0.850196960734157    0.246403133137823    0.888097532117135  0.0000
  Si     Si        0.719140446787860    0.599970889101660    0.660903279991477  0.0000
  Si     Si        0.317913529808066    0.606346484279852    0.325072100207058  0.0000
  Si     Si        0.818912418576489    0.898678427825722    0.326037955131477  0.0000
  Si     Si        0.216502964498303    0.896348883574318    0.654749173122447  0.0000
  Si     Si        0.215606378742988    0.098839105508467    0.662562851310287  0.0000
  Si     Si        0.819059338648384    0.100646323882385    0.327348305725119  0.0000
  Si     Si        0.414409998564822    0.396170505240999    0.682742678850277  0.0000
  Si     Si        0.611176879848342    0.398282227349249    0.291327055855093  0.0000
  Si     Si        0.617068121231883    0.600559597382154    0.301122982923762  0.0000
  Si     Si        0.417620045685726    0.600085316847614    0.677273135287312  0.0000
  Si     Si        0.921667365274661    0.894602926972178    0.681912211341904  0.0000
  Si     Si        0.115620479851855    0.900464572384516    0.296906510471062  0.0000
  Si     Si        0.117454457909433    0.099969782439109    0.304070514360890  0.0000
  Si     Si        0.919422735854246    0.098257738041760    0.684171498429880  0.0000
  O3     O3        0.494804773520791    0.220327782434989    0.034851283386205  0.0000
  O3     O3        0.498916598376636    0.780061216716071    0.030005101529193  0.0000
  O2     O2        0.988642204191752    0.722147156820850    0.020841845795104  0.0000
  O2     O2        0.979459276216003    0.264933900963420    0.027917630117599  0.0000
  O3     O3        0.330340706201538    0.159726299683079    0.760604930919442  0.0000
  O2     O2        0.708299968655903    0.164697620925774    0.225470830209705  0.0000
  O2     O2        0.707328719327145    0.835645290881627    0.224345117686862  0.0000
  O3     O3        0.333453080253763    0.834980001816203    0.748479618503172  0.0000
  O2     O2        0.824754367212740    0.668550151691637    0.760957623010307  0.0000
  O2     O2        0.205535929710576    0.668717388057759    0.220510865553610  0.0000
  O3     O3        0.180324790816814    0.338789301282437    0.213922309637513  0.0000
  O3     O3        0.834768381072713    0.323685365022914    0.763214799259113  0.0000
  O3     O3        0.354528284524276    0.343970533046234    0.803303063003773  0.0000
  O2     O2        0.673162490994904    0.335788383920135    0.181072532509359  0.0000
  O2     O2        0.671402342595535    0.664262508802066    0.187538919133153  0.0000
  O3     O3        0.372851147146000    0.652982613905146    0.807318092159556  0.0000
  O2     O2        0.868680224487256    0.836741445262857    0.803670450583268  0.0000
  O2     O2        0.165743784137262    0.837605930348083    0.179635860321626  0.0000
  O2     O2        0.174322201568654    0.166151718727290    0.197077864055123  0.0000
  O2     O2        0.861734121926107    0.154021636784259    0.804299289498653  0.0000
  O3     O3        0.214381952114311    0.255463938454823    0.966669670663833  0.0000
  O2     O2        0.720461890370499    0.240036411898279    0.956856879802175  0.0000
  O2     O2        0.730464907342263    0.755840562189030    0.965920404225382  0.0000
  O3     O3        0.218487899503419    0.745346970627558    0.958275120883340  0.0000
  O3     O3        0.450969872638066    0.384792255751186    0.245663147742613  0.0000
  O3     O3        0.574344944481484    0.383450132941707    0.731704971640767  0.0000
  O2     O2        0.578331733564874    0.607214136808578    0.707052883933199  0.0000
  O2     O2        0.456763176349941    0.614327654004055    0.272257444779131  0.0000
  O2     O2        0.959638791160396    0.881027607636625    0.284515324354568  0.0000
  O2     O2        0.076211302787568    0.869938473905581    0.693811802718776  0.0000
  O2     O2        0.074464694360136    0.123840822048645    0.701252584566109  0.0000
  O2     O2        0.960649090784705    0.119059981408991    0.288528107404469  0.0000
  O3     O3        0.352858226090575    0.362551832393773    0.508473669934862  0.0000
  O3     O3        0.674412232741593    0.373645989063142    0.468980435183731  0.0000
  O2     O2        0.694860770915053    0.621701209057608    0.478201133698921  0.0000
  O2     O2        0.345082050740483    0.635960594241798    0.504781253710789  0.0000
  O2     O2        0.832754686688369    0.877839125216189    0.506926668026593  0.0000
  O2     O2        0.202632373743482    0.883933595041752    0.471904091090995  0.0000
  O2     O2        0.202095064505942    0.113932556261046    0.480403511906926  0.0000
  O2     O2        0.832511689758463    0.118508379147114    0.509112417805175  0.0000
  O3     O3        0.265395522584814    0.507760641674577    0.304951069326588  0.0000
  O3     O3        0.776101920286584    0.502358054711339    0.693603247088396  0.0000
  O2     O2        0.774740238227811    0.999773061098255    0.288757394919587  0.0000
  O2     O2        0.250517608693323    0.997131752296818    0.703580151892743  0.0000
  O2     O2        0.376637776758974    0.498921622534967    0.685547731870660  0.0000
  O2     O2        0.645193759848081    0.499974470549132    0.262134890448861  0.0000
  O2     O2        0.908273339891689    0.996133647402889    0.725482613083339  0.0000
  O2     O2        0.135414193263856    0.000812590278987    0.248648466427208  0.0000
