data_c00387.vasp
_audit_creation_method             Generated by GULP
_audit_author_name                 Salvador R. G. Balestra
_symmetry_space_group_name_H-M     'P 1             '
_symmetry_Int_Tables_number        1

loop_
_symmetry_equiv_pos_site_id
_symmetry_equiv_pos_as_xyz
_cell_length_a                       10.3047
_cell_length_b                       15.1828
_cell_length_c                        8.9202
_cell_angle_alpha                   89.8326
_cell_angle_beta                   104.7671
_cell_angle_gamma                   90.1883

loop_
_atom_site_label
_atom_site_type_symbol
_atom_site_fract_x
_atom_site_fract_y
_atom_site_fract_z
_atom_site_charge
  Ge     Ge        0.351599999999962    0.244500000000016    0.893900000000031  0.0000
  Ge     Ge        0.156072725688335    0.742320533827362    0.082788869408844  0.0000
  Ge     Ge        0.310036041550475    0.393784858516662    0.325287753380047  0.0000
  Ge     Ge        0.223990583992759    0.895039493126707    0.654315995599683  0.0000
  Si     Si        0.646408204661896    0.231550652660127    0.097571809441065  0.0000
  Si     Si        0.660511041217268    0.749788269629606    0.093958706848971  0.0000
  Si     Si        0.373396600360374    0.753223530487389    0.882732636691256  0.0000
  Si     Si        0.857315262387857    0.736233768639883    0.878221663639457  0.0000
  Si     Si        0.132716225722073    0.259146966415794    0.092118918409833  0.0000
  Si     Si        0.842276901182231    0.243630734650737    0.880607244948079  0.0000
  Si     Si        0.712579615180542    0.391179609788500    0.652272673883362  0.0000
  Si     Si        0.723759820649717    0.591058030352870    0.652619945381393  0.0000
  Si     Si        0.324583882551527    0.604071400937047    0.324434315920370  0.0000
  Si     Si        0.826148029812420    0.891093371689470    0.319269041213335  0.0000
  Si     Si        0.211343230302036    0.101265176132538    0.656897102313196  0.0000
  Si     Si        0.816171299087303    0.094349578336498    0.322700175299854  0.0000
  Si     Si        0.413902775879804    0.397208621919335    0.683809927363855  0.0000
  Si     Si        0.611126054333602    0.389827426281932    0.294194946632979  0.0000
  Si     Si        0.619575842729347    0.593401712501864    0.295115154115119  0.0000
  Si     Si        0.426186778706675    0.599837039024408    0.677151729250847  0.0000
  Si     Si        0.921000243801684    0.889416502462349    0.675681635990799  0.0000
  Si     Si        0.122364890011419    0.900338659727821    0.289897140436521  0.0000
  Si     Si        0.110857763292175    0.101668714849394    0.298346209267901  0.0000
  Si     Si        0.914581554742842    0.093739848614327    0.679045301113021  0.0000
  O3     O3        0.490834820285094    0.210926486054235    0.031845007350781  0.0000
  O2     O2        0.504278662958090    0.771547690457973    0.022064801151070  0.0000
  O3     O3        0.991137984277029    0.714228186769485    0.005227455434103  0.0000
  O2     O2        0.975073760792392    0.267703674148844    0.011396732422949  0.0000
  O3     O3        0.321141772169769    0.168655437279631    0.746283832189663  0.0000
  O2     O2        0.700058055587161    0.154637692732057    0.221666869780186  0.0000
  O2     O2        0.716068262325385    0.827536051747380    0.214867551342490  0.0000
  O3     O3        0.353427876054383    0.831216304798239    0.758257433996369  0.0000
  O2     O2        0.832873047584983    0.657732822358148    0.751677059573583  0.0000
  O3     O3        0.211869402517058    0.665988213504019    0.226140604770041  0.0000
  O3     O3        0.175921954970791    0.338675413143098    0.210598451634095  0.0000
  O2     O2        0.815274440708726    0.321536377554646    0.753269057218286  0.0000
  O3     O3        0.379916673743519    0.346488720763042    0.823327966462304  0.0000
  O2     O2        0.668427836860964    0.326945346421558    0.181438862767171  0.0000
  O2     O2        0.678335973712377    0.655868553876130    0.182657837715857  0.0000
  O2     O2        0.386421724938035    0.659835560475592    0.803825663801485  0.0000
  O2     O2        0.865989361692975    0.829190145533962    0.793732238109761  0.0000
  O3     O3        0.171376198230000    0.846011710953915    0.164141878440674  0.0000
  O2     O2        0.165484667354645    0.167713865094308    0.188591401132494  0.0000
  O2     O2        0.856988592791642    0.151487844363125    0.797329384209337  0.0000
  O3     O3        0.213356210379250    0.258735476660606    0.962862771608736  0.0000
  O2     O2        0.718703863819153    0.232722152100493    0.957882871040013  0.0000
  O2     O2        0.734646819180967    0.744754621014854    0.957572856300264  0.0000
  O3     O3        0.240937637600644    0.745844125203029    0.942566972648420  0.0000
  O3     O3        0.455755066452952    0.366617442697256    0.273678308254445  0.0000
  O2     O2        0.568461164783269    0.380537869971320    0.685974000127047  0.0000
  O2     O2        0.583888090740783    0.608807910177124    0.693795452885770  0.0000
  O2     O2        0.465143854395285    0.619078574015607    0.278380000606258  0.0000
  O2     O2        0.970581439865948    0.871209192448110    0.289267866471649  0.0000
  O3     O3        0.073700625718421    0.863970859216294    0.691156941311305  0.0000
  O2     O2        0.067820555151542    0.121687705743780    0.692673181930299  0.0000
  O2     O2        0.955754833666660    0.122939662288574    0.287263647094620  0.0000
  O3     O3        0.324108639600977    0.367513725398866    0.517069617253480  0.0000
  O2     O2        0.696644996362425    0.373618430624154    0.470512333715291  0.0000
  O2     O2        0.707856610897465    0.607632894807329    0.470410024663626  0.0000
  O2     O2        0.344597205428911    0.628513151843133    0.505245629108005  0.0000
  O2     O2        0.833480807924437    0.873928227824514    0.499660944795625  0.0000
  O3     O3        0.216042434117148    0.884117929735828    0.460223188700342  0.0000
  O2     O2        0.198356073264148    0.112084040930032    0.473885507074418  0.0000
  O2     O2        0.825005393679357    0.108748793535341    0.504077097241018  0.0000
  O3     O3        0.279076776019048    0.504018685581233    0.294608392462155  0.0000
  O2     O2        0.769545011478173    0.490088544776250    0.694254910176037  0.0000
  O2     O2        0.784271553395190    0.992300708601403    0.277523425016242  0.0000
  O3     O3        0.255968235174452    0.003134260617280    0.709375223770286  0.0000
  O2     O2        0.388178314120497    0.500191831837759    0.707458108685624  0.0000
  O2     O2        0.627297214494216    0.491537268402573    0.246808040961737  0.0000
  O2     O2        0.909197674744204    0.991104194614448    0.723663883900972  0.0000
  O2     O2        0.125410630189128    0.002774343476349    0.242422728533696  0.0000
