data_c00389.vasp
_audit_creation_method             Generated by GULP
_audit_author_name                 Salvador R. G. Balestra
_symmetry_space_group_name_H-M     'P 1             '
_symmetry_Int_Tables_number        1

loop_
_symmetry_equiv_pos_site_id
_symmetry_equiv_pos_as_xyz
_cell_length_a                       10.2458
_cell_length_b                       15.2342
_cell_length_c                        8.9191
_cell_angle_alpha                   89.7029
_cell_angle_beta                   105.0574
_cell_angle_gamma                   89.5520

loop_
_atom_site_label
_atom_site_type_symbol
_atom_site_fract_x
_atom_site_fract_y
_atom_site_fract_z
_atom_site_charge
  Ge     Ge        0.351599999999962    0.244500000000016    0.893900000000031  0.0000
  Ge     Ge        0.157739428518626    0.752322031032677    0.095444448952525  0.0000
  Ge     Ge        0.284990652845331    0.403585959220824    0.318002792636774  0.0000
  Ge     Ge        0.782682582053641    0.099748786323280    0.328096299901718  0.0000
  Si     Si        0.652274037653586    0.247934915964968    0.098432909532012  0.0000
  Si     Si        0.660772651675626    0.749446099323444    0.095992112261260  0.0000
  Si     Si        0.368284164016343    0.759589042311219    0.886619959108343  0.0000
  Si     Si        0.860187580184975    0.734892690968135    0.882571068551085  0.0000
  Si     Si        0.143667339473623    0.256874936043939    0.102643809333744  0.0000
  Si     Si        0.853585180426735    0.251479301743663    0.890364645489712  0.0000
  Si     Si        0.684065114222830    0.392454338027362    0.660882063920308  0.0000
  Si     Si        0.695021053843186    0.595769925130583    0.661564371946412  0.0000
  Si     Si        0.296044584882728    0.607063672273586    0.327510078515824  0.0000
  Si     Si        0.795100135662786    0.895337295277456    0.319218026126660  0.0000
  Si     Si        0.191326223603692    0.895636627663690    0.659355571176072  0.0000
  Si     Si        0.184866848049563    0.099490144859006    0.667053905961081  0.0000
  Si     Si        0.384627959109525    0.402267627679584    0.685243139435440  0.0000
  Si     Si        0.590026974088688    0.396984409334191    0.303613736590879  0.0000
  Si     Si        0.594419239409475    0.601373917775966    0.305977120772475  0.0000
  Si     Si        0.398510730748262    0.601224893497718    0.687166897139971  0.0000
  Si     Si        0.893112199352081    0.892947733276729    0.681104669254713  0.0000
  Si     Si        0.094159585979900    0.903103890001669    0.303373663125956  0.0000
  Si     Si        0.088603323213058    0.107662035352038    0.314790325183528  0.0000
  Si     Si        0.884410393121648    0.093756298045343    0.690734542560018  0.0000
  O3     O3        0.523224301241257    0.231518331128571    0.959233506675859  0.0000
  O2     O2        0.527214451005344    0.774239164523102    0.962494710161795  0.0000
  O3     O3        0.017766535567782    0.721501269665105    0.955670352639757  0.0000
  O2     O2        0.012248512874816    0.269590134294081    0.958932730769849  0.0000
  O3     O3        0.297804755955910    0.155079958431973    0.778849944852360  0.0000
  O3     O3        0.662182753207444    0.169995636079131    0.222229534843952  0.0000
  O2     O2        0.688519292358811    0.826112120124522    0.223854805334226  0.0000
  O2     O2        0.312461663529063    0.837932528061258    0.764080315155301  0.0000
  O2     O2        0.812147194160797    0.653663424863293    0.767658699321939  0.0000
  O3     O3        0.185227269104846    0.676606254321045    0.244483210396801  0.0000
  O3     O3        0.156113393674690    0.338446812373965    0.217249669877702  0.0000
  O2     O2        0.795537459327575    0.327703732308124    0.764812090784755  0.0000
  O3     O3        0.320828074531457    0.342102237429340    0.791896633781287  0.0000
  O2     O2        0.647894256800945    0.340924034770097    0.183194503362274  0.0000
  O2     O2        0.647688396485891    0.658125465950616    0.182760767225217  0.0000
  O2     O2        0.343402149424287    0.667403572152380    0.795546760489284  0.0000
  O2     O2        0.833988655922768    0.826616099372223    0.786243583951703  0.0000
  O3     O3        0.145949258388719    0.854277294805481    0.174039156011284  0.0000
  O2     O2        0.141904757719086    0.165791477107127    0.194070064639189  0.0000
  O2     O2        0.834123920620338    0.155962867917038    0.810079780954414  0.0000
  O3     O3        0.277328547501109    0.252476412079401    0.043216224726631  0.0000
  O2     O2        0.783284170756481    0.249927146067448    0.030598579728314  0.0000
  O2     O2        0.784809103364950    0.738793187147677    0.018979120726751  0.0000
  O3     O3        0.295965728703922    0.757504693122480    0.022595248111965  0.0000
  O3     O3        0.436298156831299    0.371133768185419    0.283356329294375  0.0000
  O2     O2        0.538767416166226    0.372945279218472    0.691161550464288  0.0000
  O2     O2        0.554026014734561    0.622992951880693    0.696865072552432  0.0000
  O2     O2        0.441063078927860    0.629709634614059    0.296092566824474  0.0000
  O2     O2        0.939980508578708    0.875209665867291    0.287655718873636  0.0000
  O2     O2        0.050794813894618    0.869356381549557    0.698130610835968  0.0000
  O2     O2        0.037252074424854    0.119692008597080    0.692290884553912  0.0000
  O3     O3        0.935671797900783    0.132779086555319    0.303369113803136  0.0000
  O3     O3        0.293512719698158    0.393986113160155    0.511836469929654  0.0000
  O2     O2        0.676166111102673    0.376318216634787    0.480124024492673  0.0000
  O2     O2        0.687058797414660    0.615006345607903    0.481025066014487  0.0000
  O2     O2        0.308957512600476    0.609450987569498    0.511212102069001  0.0000
  O2     O2        0.807585845241821    0.885582737265604    0.502991857009092  0.0000
  O2     O2        0.181916380634721    0.879416484171806    0.478185067716400  0.0000
  O2     O2        0.180554085007286    0.123903824989741    0.489260949871232  0.0000
  O3     O3        0.786041012967739    0.106869607650107    0.521748091297435  0.0000
  O3     O3        0.251836400941086    0.511404267354660    0.262008577207076  0.0000
  O2     O2        0.726735310662732    0.493113676827494    0.701892804568204  0.0000
  O3     O3        0.746731569594113    0.993123077304750    0.267213870420616  0.0000
  O2     O2        0.221715919899304    0.997075109806967    0.699898850235297  0.0000
  O2     O2        0.386114408271385    0.502363121515426    0.745882576058166  0.0000
  O2     O2        0.600761478457000    0.499367971437088    0.262388109807175  0.0000
  O2     O2        0.880351481737629    0.991692705482894    0.741643478162267  0.0000
  O2     O2        0.100274901552875    0.006367916745160    0.271140004218223  0.0000
