data_c00392.vasp
_audit_creation_method             Generated by GULP
_audit_author_name                 Salvador R. G. Balestra
_symmetry_space_group_name_H-M     'P 1             '
_symmetry_Int_Tables_number        1

loop_
_symmetry_equiv_pos_site_id
_symmetry_equiv_pos_as_xyz
_cell_length_a                       10.2676
_cell_length_b                       15.1885
_cell_length_c                        8.9249
_cell_angle_alpha                   90.3083
_cell_angle_beta                   104.8371
_cell_angle_gamma                   90.1256

loop_
_atom_site_label
_atom_site_type_symbol
_atom_site_fract_x
_atom_site_fract_y
_atom_site_fract_z
_atom_site_charge
  Ge     Ge        0.351599999999962    0.244500000000016    0.893900000000031  0.0000
  Ge     Ge        0.150716259714849    0.736891503303419    0.088956141872476  0.0000
  Ge     Ge        0.312781992394374    0.387859904239157    0.332868009002738  0.0000
  Ge     Ge        0.614108124250191    0.594562148056065    0.289990661935003  0.0000
  Si     Si        0.646966205756841    0.229994009878457    0.097353867248110  0.0000
  Si     Si        0.651234747947511    0.753491715863541    0.086278400052611  0.0000
  Si     Si        0.361362201236740    0.756082438707795    0.881165164462637  0.0000
  Si     Si        0.851583582127102    0.742565315197885    0.878668311882253  0.0000
  Si     Si        0.134028503039900    0.255011693375691    0.094844173448168  0.0000
  Si     Si        0.842411976196778    0.247344690024370    0.881078284815747  0.0000
  Si     Si        0.712798976016298    0.395529616887378    0.656667492682182  0.0000
  Si     Si        0.722753595321660    0.595613432120248    0.648420092137845  0.0000
  Si     Si        0.316144092133851    0.598155757995868    0.319161297546066  0.0000
  Si     Si        0.824783452069388    0.888622633060330    0.319035083223703  0.0000
  Si     Si        0.217905202845374    0.899160834622040    0.658802097565634  0.0000
  Si     Si        0.210885319851348    0.101626898446346    0.652636980792297  0.0000
  Si     Si        0.816783657140625    0.091919767695007    0.317885196443739  0.0000
  Si     Si        0.415158539406165    0.400823165795748    0.691754430882110  0.0000
  Si     Si        0.610430770989451    0.385948065113299    0.300303484205418  0.0000
  Si     Si        0.421229604116165    0.601847584623170    0.671285317876970  0.0000
  Si     Si        0.918829545445059    0.894312957276797    0.675765336835864  0.0000
  Si     Si        0.123888487457674    0.894726671501279    0.300288168576574  0.0000
  Si     Si        0.113865142219240    0.096994179772816    0.295865135046685  0.0000
  Si     Si        0.911823307993081    0.097232550287422    0.674100837997091  0.0000
  O3     O3        0.490539297721819    0.210402520938328    0.031170242167498  0.0000
  O2     O2        0.493598186917673    0.776542811843156    0.018835255279600  0.0000
  O3     O3        0.981120072861286    0.721191224793506    0.012677232865602  0.0000
  O2     O2        0.976244613984330    0.267226939669067    0.014463946505014  0.0000
  O3     O3        0.321347452590172    0.167331792583043    0.746773088411104  0.0000
  O2     O2        0.700748125300666    0.149728079815619    0.212161856348735  0.0000
  O2     O2        0.710265889139278    0.825316805469644    0.219899635524736  0.0000
  O2     O2        0.333182810967588    0.838817850857346    0.764204969074513  0.0000
  O2     O2        0.827891889743408    0.661836529446119    0.756583286684231  0.0000
  O3     O3        0.193093806584279    0.652142879185067    0.218113827882521  0.0000
  O3     O3        0.177902983734042    0.329220625750440    0.225058113336933  0.0000
  O2     O2        0.817688622626232    0.328177474856943    0.760741500304130  0.0000
  O3     O3        0.381576832620814    0.346960788878008    0.827753897921081  0.0000
  O2     O2        0.672333502894233    0.322180193373458    0.191601411815456  0.0000
  O3     O3        0.671038831296391    0.657195850325841    0.159897504689958  0.0000
  O2     O2        0.384633583177265    0.668463666676105    0.791389793137390  0.0000
  O2     O2        0.869129660426175    0.833559724308509    0.794669305602857  0.0000
  O3     O3        0.184061341745159    0.836046628557264    0.188445368514055  0.0000
  O2     O2        0.164295506474958    0.159559645079159    0.178111233113209  0.0000
  O2     O2        0.854814651913060    0.157351130220429    0.789812770825820  0.0000
  O3     O3        0.214638512960937    0.260752015629528    0.965653440300143  0.0000
  O2     O2        0.717538409963159    0.235757436235414    0.956315168781262  0.0000
  O2     O2        0.723292549930394    0.756797966347359    0.947295093166996  0.0000
  O3     O3        0.234110946789198    0.736750572497968    0.946285583781473  0.0000
  O3     O3        0.460975246479526    0.351786198747059    0.295266803077429  0.0000
  O2     O2        0.564886675631328    0.377904024807603    0.678195603237155  0.0000
  O2     O2        0.572128715847059    0.617853780321005    0.658498381391809  0.0000
  O3     O3        0.454618243302212    0.631799394532514    0.285587552598725  0.0000
  O2     O2        0.966861964737702    0.868987002368103    0.279971613051779  0.0000
  O2     O2        0.076888472700087    0.877077431840692    0.697854769808865  0.0000
  O2     O2        0.068448459063458    0.120198305624462    0.692898294997613  0.0000
  O2     O2        0.956886483049847    0.115754822990487    0.279152059386472  0.0000
  O3     O3        0.315158420116335    0.378005275414611    0.526018101066788  0.0000
  O2     O2        0.706013369888256    0.382287216986938    0.475565140522936  0.0000
  O3     O3        0.724726109636081    0.605731969592548    0.471447011779752  0.0000
  O2     O2        0.321711066760543    0.612530708747143    0.501105464523666  0.0000
  O2     O2        0.837590371066311    0.871141726513655    0.500332187609294  0.0000
  O2     O2        0.205775639801242    0.879652364318617    0.478384194027708  0.0000
  O2     O2        0.197436974641503    0.117629299182850    0.471079439754781  0.0000
  O2     O2        0.827186874562604    0.113237017050948    0.497754950694844  0.0000
  O3     O3        0.296044402951854    0.496039826053975    0.277129840262524  0.0000
  O2     O2        0.760987180480264    0.495435447972955    0.705539656139928  0.0000
  O2     O2        0.781976610747923    0.989480997978045    0.280898827626874  0.0000
  O2     O2        0.255492895933976    0.001201053387247    0.696317130219291  0.0000
  O2     O2        0.405536589720617    0.503915151267569    0.732359049180274  0.0000
  O3     O3        0.607011508865180    0.484681795748772    0.238303829814083  0.0000
  O2     O2        0.895473179134941    0.995515703402468    0.717031157730644  0.0000
  O2     O2        0.135889513129681    0.996226964999932    0.253557209988831  0.0000
