data_c00393.vasp
_audit_creation_method             Generated by GULP
_audit_author_name                 Salvador R. G. Balestra
_symmetry_space_group_name_H-M     'P 1             '
_symmetry_Int_Tables_number        1

loop_
_symmetry_equiv_pos_site_id
_symmetry_equiv_pos_as_xyz
_cell_length_a                       10.3002
_cell_length_b                       15.2110
_cell_length_c                        8.9260
_cell_angle_alpha                   89.7679
_cell_angle_beta                   105.1918
_cell_angle_gamma                   89.8599

loop_
_atom_site_label
_atom_site_type_symbol
_atom_site_fract_x
_atom_site_fract_y
_atom_site_fract_z
_atom_site_charge
  Ge     Ge        0.351599999999962    0.244500000000016    0.893900000000031  0.0000
  Ge     Ge        0.149566450232715    0.751470742979272    0.087861637803608  0.0000
  Ge     Ge        0.287484369838545    0.397363599401178    0.318661041356139  0.0000
  Ge     Ge        0.387721553379314    0.608314847078721    0.679266092606393  0.0000
  Si     Si        0.653921601014464    0.247103961285656    0.096587839932999  0.0000
  Si     Si        0.654447724796309    0.754275958950531    0.089202220254682  0.0000
  Si     Si        0.360152860953050    0.765877762868323    0.888370697253631  0.0000
  Si     Si        0.852540973713264    0.741754410076790    0.875295818046889  0.0000
  Si     Si        0.136560608067644    0.256408553929490    0.093151987852531  0.0000
  Si     Si        0.848197430828026    0.257177323963201    0.879599615173187  0.0000
  Si     Si        0.681687071434051    0.400513425422005    0.658186882924388  0.0000
  Si     Si        0.688288643467896    0.601960221979896    0.656085854788679  0.0000
  Si     Si        0.289510099072770    0.605677261377835    0.318677700627089  0.0000
  Si     Si        0.788781726428816    0.899996017526655    0.317075060963767  0.0000
  Si     Si        0.184070356696421    0.899763238259046    0.658183926778606  0.0000
  Si     Si        0.180906981325173    0.104831463966376    0.659445041361487  0.0000
  Si     Si        0.783330376012461    0.100223364274028    0.322133793230516  0.0000
  Si     Si        0.383707837239980    0.400821744595049    0.680422321216968  0.0000
  Si     Si        0.587647389969525    0.399897984960863    0.295747694448208  0.0000
  Si     Si        0.586503014335770    0.601959116374724    0.294727047129829  0.0000
  Si     Si        0.886999342051542    0.898777727924145    0.677215598932824  0.0000
  Si     Si        0.088674057652936    0.903328987542907    0.302451448753874  0.0000
  Si     Si        0.083141275162632    0.105301243309687    0.305763387599519  0.0000
  Si     Si        0.883332426521570    0.101111393496254    0.679535769085045  0.0000
  O3     O3        0.520687224970468    0.225887022136000    0.967307546603852  0.0000
  O2     O2        0.520942952990073    0.777140625993050    0.955132558162660  0.0000
  O3     O3        0.009570787317100    0.726932939693861    0.943670084439363  0.0000
  O2     O2        0.006731577973774    0.273559268210264    0.950303769003384  0.0000
  O3     O3        0.298253919623354    0.160195475514129    0.764792419573908  0.0000
  O2     O2        0.675592592207635    0.167289738174201    0.220914203615131  0.0000
  O2     O2        0.682214503961596    0.833172669433205    0.213821251845198  0.0000
  O2     O2        0.305733657420983    0.842996375079260    0.762110441902325  0.0000
  O2     O2        0.805950588214728    0.664245812341185    0.751311617534616  0.0000
  O3     O3        0.172750106555976    0.663167604718952    0.211642137930929  0.0000
  O3     O3        0.155489627840555    0.337346147908977    0.210265839622954  0.0000
  O2     O2        0.794190145441547    0.335338422809965    0.757389385661222  0.0000
  O3     O3        0.329248309039800    0.344919911588419    0.801308096222055  0.0000
  O2     O2        0.649097571493406    0.338409517143120    0.185953721303711  0.0000
  O2     O2        0.639812139877173    0.663978782155425    0.178425944543650  0.0000
  O3     O3        0.328313388763117    0.672542854862503    0.803710403283711  0.0000
  O2     O2        0.827211371859475    0.836320472099990    0.787626065628212  0.0000
  O3     O3        0.138167026033291    0.849009879193688    0.179280097183323  0.0000
  O2     O2        0.125809751938398    0.165579849402112    0.181233930164386  0.0000
  O2     O2        0.824952666363715    0.163705830732148    0.790971280930287  0.0000
  O3     O3        0.270469702478045    0.246887635741161    0.037089060873936  0.0000
  O2     O2        0.777111712560196    0.255129615374186    0.018323730850541  0.0000
  O2     O2        0.777607577992931    0.741496427869946    0.012164059791019  0.0000
  O3     O3        0.291085548661738    0.770415395477183    0.026194068488794  0.0000
  O3     O3        0.428784414053021    0.385089487800957    0.250248872355676  0.0000
  O2     O2        0.546601967917094    0.393196100685713    0.715613759772903  0.0000
  O3     O3        0.560252601923295    0.617282910571463    0.721156991532453  0.0000
  O2     O2        0.425952045689249    0.611837749440602    0.259863449849995  0.0000
  O2     O2        0.930709913758224    0.885278252300792    0.278795374020664  0.0000
  O2     O2        0.045230868881676    0.876729305976460    0.702575148459940  0.0000
  O2     O2        0.039322690713885    0.125178198838896    0.699242252815347  0.0000
  O2     O2        0.925692907598706    0.118205853613353    0.287638127689998  0.0000
  O3     O3        0.321127047121596    0.364025285415020    0.509138150900033  0.0000
  O2     O2        0.650284578963618    0.375832686537838    0.476736763095640  0.0000
  O2     O2        0.655627801775151    0.626195321673392    0.473430311827851  0.0000
  O3     O3        0.319952866767364    0.642518605061869    0.491528547622152  0.0000
  O2     O2        0.805549185276155    0.882202216045515    0.499353830279763  0.0000
  O2     O2        0.168299559610944    0.876996411933906    0.478240836956017  0.0000
  O2     O2        0.166369628811319    0.130192441819998    0.479723076350368  0.0000
  O2     O2        0.795999493346590    0.116467048284009    0.503468130592191  0.0000
  O3     O3        0.241071007410950    0.505975640076845    0.311613994829411  0.0000
  O2     O2        0.736084949492119    0.500255694062982    0.681347587834713  0.0000
  O2     O2        0.737055828801973    0.000010464691816    0.277552973849030  0.0000
  O2     O2        0.216635580261779    0.002090082289239    0.688129808393114  0.0000
  O3     O3        0.342339246623345    0.500915891065848    0.696525443980265  0.0000
  O2     O2        0.621207603970569    0.501083312057666    0.263593739436315  0.0000
  O2     O2        0.870055773718188    0.999456393943325    0.725657602822841  0.0000
  O2     O2        0.114254626896028    0.005210580458067    0.271488942368373  0.0000
