data_c00315.vasp
_audit_creation_method             Generated by GULP
_audit_author_name                 Salvador R. G. Balestra
_symmetry_space_group_name_H-M     'P 1             '
_symmetry_Int_Tables_number        1

loop_
_symmetry_equiv_pos_site_id
_symmetry_equiv_pos_as_xyz
_cell_length_a                       10.1912
_cell_length_b                       15.1681
_cell_length_c                        8.9755
_cell_angle_alpha                   90.1748
_cell_angle_beta                   105.0149
_cell_angle_gamma                   89.8299

loop_
_atom_site_label
_atom_site_type_symbol
_atom_site_fract_x
_atom_site_fract_y
_atom_site_fract_z
_atom_site_charge
  Ge     Ge        0.351599999999962    0.244500000000016    0.893900000000031  0.0000
  Ge     Ge        0.359106329610029    0.764681041073761    0.898638537554015  0.0000
  Ge     Ge        0.885456034849287    0.900784502950762    0.693776551320237  0.0000
  Ge     Ge        0.089276661366493    0.904760124091284    0.313241957957011  0.0000
  Si     Si        0.652522505474688    0.252106497756380    0.108790519174168  0.0000
  Si     Si        0.659782323934323    0.755625291711529    0.110753093862983  0.0000
  Si     Si        0.856420341417075    0.741335593728164    0.900956202964859  0.0000
  Si     Si        0.146120889723898    0.748918024483737    0.100100716061348  0.0000
  Si     Si        0.142115625833850    0.262906855033215    0.102374779553071  0.0000
  Si     Si        0.850334311322315    0.265616875204635    0.895701821936079  0.0000
  Si     Si        0.282956304997189    0.406840711482516    0.325548246958959  0.0000
  Si     Si        0.676542405451781    0.401639837089023    0.668801332759789  0.0000
  Si     Si        0.678261550581393    0.606908934908614    0.672544759830759  0.0000
  Si     Si        0.285640727913134    0.608064828025880    0.329969779840724  0.0000
  Si     Si        0.774674669996067    0.906544988442271    0.341985330940588  0.0000
  Si     Si        0.185866959623868    0.898171855861641    0.662229170380755  0.0000
  Si     Si        0.178574262266055    0.108519243520076    0.660765291910697  0.0000
  Si     Si        0.781302301415557    0.104628840402403    0.335558500433973  0.0000
  Si     Si        0.375110156625495    0.402806353826517    0.681961677751541  0.0000
  Si     Si        0.587384237600941    0.403785209671789    0.314466555651668  0.0000
  Si     Si        0.589236744265800    0.606888088745354    0.318124578196615  0.0000
  Si     Si        0.377426561126234    0.606523112985747    0.686425926668920  0.0000
  Si     Si        0.084859915514365    0.108364455853837    0.309289586351748  0.0000
  Si     Si        0.887059192066750    0.109417801566340    0.693415496350277  0.0000
  O3     O3        0.522236695457968    0.230013569122228    0.973968482384240  0.0000
  O3     O3        0.531417085348395    0.774100399728840    0.971403448960510  0.0000
  O2     O2        0.017208380227719    0.720806129631427    0.961884144409821  0.0000
  O2     O2        0.009611235177939    0.284520350774082    0.965657741312664  0.0000
  O3     O3        0.305362804430323    0.156274687845547    0.769863454542030  0.0000
  O2     O2        0.676985239018364    0.175075599458245    0.236857132414173  0.0000
  O2     O2        0.679460870702495    0.838750890505728    0.226027057661899  0.0000
  O3     O3        0.312266338724329    0.854848551668363    0.781855266282398  0.0000
  O2     O2        0.797069936112082    0.664800626304689    0.777846001167037  0.0000
  O2     O2        0.173239738063750    0.674543448444892    0.233341239648074  0.0000
  O2     O2        0.168828537972449    0.345013352992894    0.221050748016288  0.0000
  O2     O2        0.794293363870638    0.344367743639508    0.777216092196409  0.0000
  O3     O3        0.315718069326179    0.341925043810419    0.790919124943466  0.0000
  O2     O2        0.637004566302399    0.344295466698773    0.192616609452048  0.0000
  O2     O2        0.642965723527883    0.666971414468654    0.201576216290534  0.0000
  O3     O3        0.317151712209387    0.667647282038240    0.794989392982816  0.0000
  O3     O3        0.829392424178264    0.835994232814425    0.821737385532391  0.0000
  O3     O3        0.108443610043193    0.841595680120499    0.163776999784923  0.0000
  O2     O2        0.121215281058417    0.174616996767080    0.189580298221180  0.0000
  O2     O2        0.826387486834802    0.173335502439335    0.802572524200972  0.0000
  O3     O3        0.271488473043474    0.246832997006804    0.038530788105374  0.0000
  O2     O2        0.779566834291991    0.261674822248186    0.035242301707967  0.0000
  O2     O2        0.791625630308174    0.741140163043051    0.046614713229945  0.0000
  O3     O3        0.280931071104405    0.761970425213864    0.045629062217454  0.0000
  O2     O2        0.427742836514957    0.387197428822921    0.291371407066541  0.0000
  O2     O2        0.533390483553755    0.377288091102493    0.703067278467255  0.0000
  O2     O2        0.536186346786963    0.631349788968755    0.709978031995354  0.0000
  O2     O2        0.429862145048605    0.625975067198742    0.293582486459259  0.0000
  O3     O3        0.931597379009901    0.897519575905519    0.345648317831350  0.0000
  O3     O3        0.047028860994612    0.864282391360031    0.696925692896080  0.0000
  O2     O2        0.041346003576320    0.140742256341451    0.704471427182570  0.0000
  O2     O2        0.925415557612575    0.114507280192981    0.297812290007564  0.0000
  O2     O2        0.292765439981721    0.388536941264440    0.504378527183799  0.0000
  O2     O2        0.668942631706504    0.381364170586593    0.489813479813478  0.0000
  O2     O2        0.669647024677318    0.628240964679634    0.494072869145039  0.0000
  O2     O2        0.296881139596244    0.624237737047745    0.509443602651892  0.0000
  O3     O3        0.769466690693880    0.889586390211441    0.516001085850425  0.0000
  O3     O3        0.194775869606104    0.875522040577164    0.490405874811671  0.0000
  O2     O2        0.170155696281914    0.132102589461919    0.483107906630826  0.0000
  O2     O2        0.796315303419953    0.118510690249237    0.517308042200768  0.0000
  O2     O2        0.239856880987302    0.507979111632516    0.284134339801075  0.0000
  O2     O2        0.711027891771888    0.504071643728568    0.705242139545590  0.0000
  O2     O2        0.723815805915923    0.006164130440031    0.289254583358742  0.0000
  O2     O2        0.186729119647118    0.003777724055570    0.680139172472043  0.0000
  O2     O2        0.363823053068278    0.504613646503734    0.728638459283786  0.0000
  O2     O2        0.612714114152631    0.505417609992517    0.278229513635130  0.0000
  O3     O3        0.885067108556358    0.010007174054179    0.750168790558780  0.0000
  O3     O3        0.121177861383704    0.011194610780138    0.264770709118132  0.0000
