data_c00386.vasp
_audit_creation_method             Generated by GULP
_audit_author_name                 Salvador R. G. Balestra
_symmetry_space_group_name_H-M     'P 1             '
_symmetry_Int_Tables_number        1

loop_
_symmetry_equiv_pos_site_id
_symmetry_equiv_pos_as_xyz
_cell_length_a                       10.3207
_cell_length_b                       15.2231
_cell_length_c                        8.9108
_cell_angle_alpha                   89.9498
_cell_angle_beta                   104.9628
_cell_angle_gamma                   90.0139

loop_
_atom_site_label
_atom_site_type_symbol
_atom_site_fract_x
_atom_site_fract_y
_atom_site_fract_z
_atom_site_charge
  Ge     Ge        0.351599999999962    0.244500000000016    0.893900000000031  0.0000
  Ge     Ge        0.113176670260867    0.744598103796923    0.090193003912024  0.0000
  Ge     Ge        0.284529238271076    0.397635339273887    0.322429363213764  0.0000
  Ge     Ge        0.778199088950065    0.899281693721610    0.320785362750617  0.0000
  Si     Si        0.651330422352761    0.250571078832503    0.098334144520746  0.0000
  Si     Si        0.608900291044378    0.758864047285960    0.088917653703514  0.0000
  Si     Si        0.317861286973429    0.757219545696684    0.875507149901487  0.0000
  Si     Si        0.816643175534949    0.747998710734356    0.886026922628335  0.0000
  Si     Si        0.136373611998775    0.254973416076742    0.096295656565062  0.0000
  Si     Si        0.848352191727908    0.262185054331234    0.882789528616814  0.0000
  Si     Si        0.683229590207875    0.403645066877273    0.659267443796731  0.0000
  Si     Si        0.679793131982344    0.606675199127981    0.651912992155705  0.0000
  Si     Si        0.283051296938299    0.602578306539745    0.316468586082270  0.0000
  Si     Si        0.176388620763849    0.902169050088078    0.655068643183961  0.0000
  Si     Si        0.179772065551362    0.105001361421746    0.657497421475489  0.0000
  Si     Si        0.781945394973517    0.105075841767361    0.324078767364796  0.0000
  Si     Si        0.386686677339361    0.404264699781990    0.688251397405709  0.0000
  Si     Si        0.585417758937717    0.399973186742745    0.301512042412136  0.0000
  Si     Si        0.578955957186763    0.604242931499194    0.296011357983882  0.0000
  Si     Si        0.384845629882819    0.604201224937424    0.675392691176353  0.0000
  Si     Si        0.880409879792895    0.902777626399606    0.685730932190308  0.0000
  Si     Si        0.080538852805356    0.900647091563373    0.298303307178180  0.0000
  Si     Si        0.077514934845493    0.104219868044802    0.302125426739709  0.0000
  Si     Si        0.883081773864552    0.104300530809966    0.682627461848861  0.0000
  O3     O3        0.518873786016990    0.224032239670751    0.971575636937908  0.0000
  O2     O2        0.452934043698102    0.775464079299957    0.007518249332229  0.0000
  O3     O3        0.945885591142311    0.720911781644710    0.016482030973851  0.0000
  O2     O2        0.006213715594710    0.276495091077777    0.957239492094141  0.0000
  O3     O3        0.296158343330876    0.163754391941391    0.757422378771772  0.0000
  O2     O2        0.676362451429861    0.175367723304532    0.230352784637594  0.0000
  O3     O3        0.652112321904435    0.834326650089884    0.215267162341165  0.0000
  O2     O2        0.290555834700458    0.840562217337494    0.759415642206451  0.0000
  O2     O2        0.788495832679883    0.672957788174588    0.753039598366396  0.0000
  O3     O3        0.166965897242416    0.665632191519711    0.229419782950597  0.0000
  O3     O3        0.156891471251851    0.331288507496735    0.222852545594005  0.0000
  O2     O2        0.797585208612748    0.342716820139533    0.764994690895751  0.0000
  O3     O3        0.334245946735767    0.346602288183954    0.807621999481199  0.0000
  O2     O2        0.642133876139568    0.344113928164835    0.179792654625644  0.0000
  O2     O2        0.631515709420938    0.664160921124994    0.175705764303851  0.0000
  O2     O2        0.328095185767869    0.668651473019895    0.782749346974014  0.0000
  O2     O2        0.840773518082178    0.841873261046496    0.813395627089801  0.0000
  O3     O3        0.139444775339556    0.845935612214473    0.180186133991644  0.0000
  O2     O2        0.125008632649401    0.161457586985046    0.176545343972319  0.0000
  O2     O2        0.825489031287762    0.169986677097032    0.790241107506145  0.0000
  O3     O3        0.267659760707954    0.247837470506838    0.034834475188291  0.0000
  O2     O2        0.773333204023866    0.258279535116346    0.018266927181429  0.0000
  O2     O2        0.691879466904230    0.760351629465224    0.960231967856545  0.0000
  O3     O3        0.193153534500291    0.742400437979867    0.945597778074244  0.0000
  O3     O3        0.435657299904732    0.368453173706180    0.286955426498360  0.0000
  O2     O2        0.540692344882778    0.380032281356358    0.691425626116614  0.0000
  O2     O2        0.537423758165625    0.629543724572730    0.683558515176855  0.0000
  O2     O2        0.425146718073342    0.630053458416893    0.283867918313506  0.0000
  O3     O3        0.927844950174545    0.870919605288930    0.282563591913030  0.0000
  O2     O2        0.033013548041994    0.880577859399377    0.685991345908425  0.0000
  O2     O2        0.038131684665550    0.128020754005924    0.694702904779140  0.0000
  O2     O2        0.925242855956408    0.127849160545885    0.294444633296582  0.0000
  O3     O3        0.294674271718773    0.387616433737752    0.516902379583116  0.0000
  O2     O2        0.674966760286838    0.386632788449200    0.478204038030839  0.0000
  O2     O2        0.670808931684015    0.621644674132400    0.470134947811661  0.0000
  O2     O2        0.294783320108661    0.609070566532681    0.499985818727607  0.0000
  O3     O3        0.786220670701217    0.886690534523967    0.515936840766067  0.0000
  O2     O2        0.167375579203168    0.884100736517528    0.474929698793901  0.0000
  O2     O2        0.169062393888134    0.122471309288236    0.475582544549909  0.0000
  O2     O2        0.792783077188918    0.114051258734201    0.507221544466900  0.0000
  O3     O3        0.248085828200844    0.503911299951081    0.260747937624309  0.0000
  O2     O2        0.720238507927119    0.505815994248441    0.698742437674129  0.0000
  O3     O3        0.738550087363557    0.007409004238052    0.269940606728125  0.0000
  O2     O2        0.215257719153084    0.003038810918842    0.697351341873470  0.0000
  O2     O2        0.378980248249554    0.505623185137924    0.737893850005374  0.0000
  O2     O2        0.588392437216333    0.502205710725953    0.253631237686509  0.0000
  O2     O2        0.870895622130083    0.004215674269565    0.737450871641280  0.0000
  O2     O2        0.086773428580902    0.003000868743179    0.256750669381912  0.0000
