data_c00322.vasp
_audit_creation_method             Generated by GULP
_audit_author_name                 Salvador R. G. Balestra
_symmetry_space_group_name_H-M     'P 1             '
_symmetry_Int_Tables_number        1

loop_
_symmetry_equiv_pos_site_id
_symmetry_equiv_pos_as_xyz
_cell_length_a                       10.3049
_cell_length_b                       15.2568
_cell_length_c                        8.8947
_cell_angle_alpha                   90.2791
_cell_angle_beta                   104.9092
_cell_angle_gamma                   89.7934

loop_
_atom_site_label
_atom_site_type_symbol
_atom_site_fract_x
_atom_site_fract_y
_atom_site_fract_z
_atom_site_charge
  Ge     Ge        0.351599999999962    0.244500000000016    0.893900000000031  0.0000
  Ge     Ge        0.881707893261314    0.740631439720347    0.891685177931473  0.0000
  Ge     Ge        0.305166664470417    0.394117678042001    0.330908213630140  0.0000
  Ge     Ge        0.811337299346321    0.893020663691363    0.327191178897237  0.0000
  Si     Si        0.647530221472664    0.238046630973332    0.099704762138949  0.0000
  Si     Si        0.668486606450251    0.748019553618698    0.098045620061940  0.0000
  Si     Si        0.380497227305653    0.759997515758890    0.885277405011806  0.0000
  Si     Si        0.181046442111113    0.744141304832580    0.096881264513596  0.0000
  Si     Si        0.135672719856121    0.253914990528353    0.098561353862561  0.0000
  Si     Si        0.844909506870069    0.254121150837848    0.885810649568531  0.0000
  Si     Si        0.706674597888302    0.398358610443059    0.659934009179915  0.0000
  Si     Si        0.711985377634709    0.601105507285065    0.654324499580605  0.0000
  Si     Si        0.311371534669641    0.598297446105447    0.321796230892028  0.0000
  Si     Si        0.210748529344803    0.898621569052912    0.662658513824174  0.0000
  Si     Si        0.210368237396420    0.102178768322785    0.654864837569678  0.0000
  Si     Si        0.812924679009187    0.097141887723347    0.321352355721578  0.0000
  Si     Si        0.411847779103688    0.403090694068536    0.694450149559207  0.0000
  Si     Si        0.609070797627831    0.392816534162387    0.303092887672547  0.0000
  Si     Si        0.608690422590307    0.594432114996313    0.297088975889192  0.0000
  Si     Si        0.416300981833462    0.604438923417113    0.680456255667876  0.0000
  Si     Si        0.915694630504274    0.901729275412475    0.693215221899909  0.0000
  Si     Si        0.115276650712563    0.893877808678967    0.303594421653494  0.0000
  Si     Si        0.110960056138246    0.095616027705827    0.297779935109779  0.0000
  Si     Si        0.915905462689942    0.103656765955413    0.680815234326897  0.0000
  O3     O3        0.493589266498209    0.213952544153936    0.030771714091913  0.0000
  O2     O2        0.538618264530678    0.773252546951600    0.960574369739533  0.0000
  O3     O3        0.049336343594821    0.719011966427147    0.967578779800631  0.0000
  O2     O2        0.979384264350122    0.272063886192769    0.018589537466056  0.0000
  O3     O3        0.324232950505679    0.164773095112076    0.750720317877523  0.0000
  O2     O2        0.705086176015122    0.164431913804874    0.226474748738858  0.0000
  O3     O3        0.689203539326215    0.822956652594389    0.228024488718887  0.0000
  O2     O2        0.328773460176562    0.841157459441834    0.770230338139259  0.0000
  O3     O3        0.828155397779631    0.661928040175078    0.749773178356914  0.0000
  O2     O2        0.206471252538252    0.667794348949022    0.225518981526988  0.0000
  O3     O3        0.180862317709347    0.326196516350243    0.231357425299290  0.0000
  O2     O2        0.818135179653687    0.336286684474883    0.768146821806629  0.0000
  O3     O3        0.371766367967570    0.347373113106877    0.824360326632837  0.0000
  O2     O2        0.664601819526587    0.332480421422966    0.185300964556610  0.0000
  O2     O2        0.653876675356546    0.653541657589241    0.172350177162551  0.0000
  O2     O2        0.356957852978182    0.669724729754313    0.787495655840247  0.0000
  O3     O3        0.863763678383232    0.844909161073652    0.814102654084497  0.0000
  O2     O2        0.169577687705065    0.835775908268872    0.182765234224645  0.0000
  O2     O2        0.159278504341319    0.157392794900125    0.177582220903101  0.0000
  O2     O2        0.856503442660010    0.165692010154924    0.791524038400734  0.0000
  O3     O3        0.216999060141788    0.258202588732983    0.970304750507123  0.0000
  O2     O2        0.721256421223245    0.241067638110351    0.961628226230549  0.0000
  O3     O3        0.798862186922494    0.739912838177213    0.034485372488265  0.0000
  O2     O2        0.305221591326025    0.754303675903047    0.020684698661757  0.0000
  O3     O3        0.455075613717717    0.368530566787574    0.288256269035487  0.0000
  O2     O2        0.562431834899869    0.377834252062207    0.688188944521868  0.0000
  O2     O2        0.571718733207802    0.627645437000641    0.693038933557941  0.0000
  O2     O2        0.454701906489370    0.614468122269787    0.287202664227410  0.0000
  O3     O3        0.962002573466864    0.869268263966026    0.285462302787088  0.0000
  O2     O2        0.069473179139943    0.874746632967029    0.698201093040732  0.0000
  O2     O2        0.070081088773330    0.129059642007673    0.693434062464104  0.0000
  O2     O2        0.955454537095906    0.114643185939271    0.284861322256867  0.0000
  O3     O3        0.315021145946776    0.383171499867594    0.525928310862841  0.0000
  O2     O2        0.698061312626910    0.378337241974661    0.479445732563024  0.0000
  O2     O2        0.698930653689275    0.614390606210254    0.470873709730917  0.0000
  O2     O2        0.326255433147128    0.613420431096491    0.504891505449866  0.0000
  O3     O3        0.824169884499028    0.882197016084468    0.522231157018012  0.0000
  O2     O2        0.200762356877676    0.878702712696829    0.481571497735841  0.0000
  O2     O2        0.198511927918352    0.115869920623247    0.472274462272530  0.0000
  O2     O2        0.826938336300881    0.112081556992934    0.504499653658478  0.0000
  O3     O3        0.261956860850262    0.500940005985576    0.275552012550981  0.0000
  O2     O2        0.746339416999430    0.499514014962658    0.699001155352263  0.0000
  O3     O3        0.765656651428585    0.999526032685034    0.273431217251907  0.0000
  O2     O2        0.244387734458242    0.000749348421367    0.699201103551176  0.0000
  O2     O2        0.404930051099955    0.505692224070661    0.737634129085084  0.0000
  O2     O2        0.623745360720800    0.493040708074793    0.253771665901697  0.0000
  O2     O2        0.908837242614968    0.004043325821479    0.736650195709861  0.0000
  O2     O2        0.129882478013734    0.994632828205762    0.255667372460128  0.0000
