data_c00318.vasp
_audit_creation_method             Generated by GULP
_audit_author_name                 Salvador R. G. Balestra
_symmetry_space_group_name_H-M     'P 1             '
_symmetry_Int_Tables_number        1

loop_
_symmetry_equiv_pos_site_id
_symmetry_equiv_pos_as_xyz
_cell_length_a                       10.2867
_cell_length_b                       15.1414
_cell_length_c                        8.9781
_cell_angle_alpha                   89.9132
_cell_angle_beta                   105.4223
_cell_angle_gamma                   90.0387

loop_
_atom_site_label
_atom_site_type_symbol
_atom_site_fract_x
_atom_site_fract_y
_atom_site_fract_z
_atom_site_charge
  Ge     Ge        0.351599999999962    0.244500000000016    0.893900000000031  0.0000
  Ge     Ge        0.389519060378086    0.758510138221694    0.893079503618561  0.0000
  Ge     Ge        0.123142230849202    0.895503949913044    0.310554758998933  0.0000
  Ge     Ge        0.118639139587953    0.105485610840226    0.309893799607349  0.0000
  Si     Si        0.650097800875990    0.240322718284063    0.110212409538687  0.0000
  Si     Si        0.688919901452379    0.750904860243327    0.105626474484938  0.0000
  Si     Si        0.884476483029073    0.737657095434612    0.893013096141867  0.0000
  Si     Si        0.177624821529634    0.742181967309756    0.094267619106704  0.0000
  Si     Si        0.142368221019006    0.262162095066504    0.093762858678258  0.0000
  Si     Si        0.845884664191116    0.250900220952535    0.894932858935786  0.0000
  Si     Si        0.314580462292636    0.399195324269396    0.318446112363776  0.0000
  Si     Si        0.708075814928838    0.395138207085258    0.665357036236564  0.0000
  Si     Si        0.712859151630630    0.599506159045613    0.666479786487643  0.0000
  Si     Si        0.320367827188551    0.601996838546927    0.320625543018899  0.0000
  Si     Si        0.815580336024381    0.898179369197536    0.332929958781277  0.0000
  Si     Si        0.211577559121836    0.894399145028144    0.663405794116881  0.0000
  Si     Si        0.205940292122508    0.103305737525966    0.664416472542541  0.0000
  Si     Si        0.813132494483549    0.098130304929469    0.331985832478935  0.0000
  Si     Si        0.408756651027246    0.397790392646238    0.675402745721756  0.0000
  Si     Si        0.615440045951434    0.396563645329407    0.309098194801899  0.0000
  Si     Si        0.620058125398469    0.600432343635624    0.309599293397365  0.0000
  Si     Si        0.413201400109355    0.601545512415834    0.676966000781718  0.0000
  Si     Si        0.917138620745706    0.894945906178281    0.690910819983593  0.0000
  Si     Si        0.914216465453813    0.099021509257056    0.692992287274991  0.0000
  O3     O3        0.492942661490334    0.224702149218723    0.039251241635507  0.0000
  O3     O3        0.559486702315068    0.772313640936235    0.969103475449513  0.0000
  O2     O2        0.042859279068215    0.718795032552325    0.961487467956577  0.0000
  O2     O2        0.980972739402880    0.272042150037412    0.026876331320997  0.0000
  O3     O3        0.329186772831246    0.150548296619951    0.780918108779933  0.0000
  O2     O2        0.699502362314221    0.163833067045208    0.236137595001223  0.0000
  O2     O2        0.709509474327889    0.829211437534850    0.231477443226677  0.0000
  O3     O3        0.336804629729251    0.851966182038606    0.783686871948212  0.0000
  O2     O2        0.828643122323401    0.659169344195781    0.773150876912035  0.0000
  O2     O2        0.203215414661496    0.664979966596428    0.223845983277623  0.0000
  O2     O2        0.194788590818606    0.340943144283558    0.216257452342703  0.0000
  O2     O2        0.818708413960231    0.331026506118010    0.771780162643372  0.0000
  O3     O3        0.353043001627182    0.338851439145137    0.788064446068680  0.0000
  O2     O2        0.673151321172047    0.335500546536837    0.195675628505041  0.0000
  O2     O2        0.675061937185442    0.658993788351503    0.191208523920394  0.0000
  O3     O3        0.353548175904681    0.664003556951406    0.782493734495878  0.0000
  O2     O2        0.860383962532768    0.831328307762648    0.802497226903993  0.0000
  O3     O3        0.162953303989424    0.835546776939211    0.168449446338254  0.0000
  O3     O3        0.174967382161950    0.170337007836568    0.183545831829758  0.0000
  O2     O2        0.854810816677862    0.159535936133019    0.805631068253538  0.0000
  O3     O3        0.212168014800405    0.266279228886587    0.957486849337847  0.0000
  O2     O2        0.724128040476155    0.239874793656441    0.973993675090368  0.0000
  O2     O2        0.815772563457727    0.741235706298341    0.033603088284489  0.0000
  O3     O3        0.309160032436592    0.746500724892375    0.034188053476793  0.0000
  O2     O2        0.456698832208918    0.375433385512574    0.282768934864876  0.0000
  O2     O2        0.565252186798996    0.373597785295183    0.697559128916762  0.0000
  O2     O2        0.571732369208913    0.623685958106859    0.701955129728431  0.0000
  O2     O2        0.463198289595140    0.623323665170165    0.285532218890577  0.0000
  O3     O3        0.951388604416637    0.893934833806500    0.281773861651853  0.0000
  O2     O2        0.076412555099318    0.876130177740128    0.719333129421990  0.0000
  O2     O2        0.073378499366024    0.117997224822729    0.727417237796569  0.0000
  O3     O3        0.944764185999154    0.108526897867350    0.272519106310993  0.0000
  O2     O2        0.326191355993391    0.381274301961765    0.498036505459602  0.0000
  O2     O2        0.697463252092402    0.377055898287933    0.485583587705814  0.0000
  O2     O2        0.702979447563580    0.618504238555072    0.486560800433058  0.0000
  O2     O2        0.333179030952676    0.619240740437330    0.499835656445634  0.0000
  O2     O2        0.840758053751180    0.873899863074658    0.513611870574530  0.0000
  O3     O3        0.196617071601506    0.855331467687113    0.494195944343908  0.0000
  O3     O3        0.183287863468113    0.144330083954010    0.495899709465683  0.0000
  O2     O2        0.842812457053539    0.120155475997279    0.514204878598497  0.0000
  O2     O2        0.279221674076343    0.501144516203176    0.276540211269112  0.0000
  O2     O2        0.749275742126834    0.496903014353545    0.704922568319496  0.0000
  O2     O2        0.756869431460250    0.997779462554491    0.304526360988545  0.0000
  O2     O2        0.229188495538221    0.999298697774301    0.645686494061462  0.0000
  O2     O2        0.396292586900559    0.499904624070682    0.719449399499900  0.0000
  O2     O2        0.635719346220414    0.498204979720017    0.267644587746529  0.0000
  O2     O2        0.891348637827613    0.996417817249671    0.731017885288245  0.0000
  O1     O1        0.171636347230647    0.001220394854167    0.286846100796230  0.0000
