data_c00329.vasp
_audit_creation_method             Generated by GULP
_audit_author_name                 Salvador R. G. Balestra
_symmetry_space_group_name_H-M     'P 1             '
_symmetry_Int_Tables_number        1

loop_
_symmetry_equiv_pos_site_id
_symmetry_equiv_pos_as_xyz
_cell_length_a                       10.2082
_cell_length_b                       15.2362
_cell_length_c                        8.9334
_cell_angle_alpha                   89.7525
_cell_angle_beta                   105.1019
_cell_angle_gamma                   89.6047

loop_
_atom_site_label
_atom_site_type_symbol
_atom_site_fract_x
_atom_site_fract_y
_atom_site_fract_z
_atom_site_charge
  Ge     Ge        0.351599999999962    0.244500000000016    0.893900000000031  0.0000
  Ge     Ge        0.857942364817343    0.742417099560974    0.892733655274905  0.0000
  Ge     Ge        0.279393827772793    0.405616999665213    0.318619624329225  0.0000
  Ge     Ge        0.391181809885686    0.608631064634655    0.691330026731241  0.0000
  Si     Si        0.654099977168967    0.250619569053243    0.100425866637121  0.0000
  Si     Si        0.650213278655753    0.757374961365868    0.104756163026837  0.0000
  Si     Si        0.358106925056893    0.767320003866884    0.896228217009030  0.0000
  Si     Si        0.157208258044401    0.756456449936822    0.101943771758956  0.0000
  Si     Si        0.141147089955528    0.256646908860589    0.100688337569848  0.0000
  Si     Si        0.851182375936288    0.260039931705903    0.886619188406765  0.0000
  Si     Si        0.677447302930774    0.397750366067289    0.660098508336602  0.0000
  Si     Si        0.692038175926490    0.603302371448297    0.663827491731476  0.0000
  Si     Si        0.284037793384144    0.607148566275364    0.330023488805547  0.0000
  Si     Si        0.782845178519453    0.904621089691221    0.325662071501731  0.0000
  Si     Si        0.179980032547164    0.899046976092251    0.662945805581585  0.0000
  Si     Si        0.182039662224299    0.104361610114105    0.663126325250260  0.0000
  Si     Si        0.782279151579717    0.103791473227500    0.327710550361415  0.0000
  Si     Si        0.381773609847688    0.404081021873091    0.687262284326086  0.0000
  Si     Si        0.587734306558216    0.401504980079907    0.302888232934906  0.0000
  Si     Si        0.590450431148591    0.603238927735313    0.312442727322100  0.0000
  Si     Si        0.881759347799249    0.902289540373091    0.685325107511338  0.0000
  Si     Si        0.085432576794670    0.903622679747294    0.308285482023837  0.0000
  Si     Si        0.085669558484012    0.104740280104127    0.309962693319829  0.0000
  Si     Si        0.883039863238507    0.104838079446326    0.684308869520018  0.0000
  O3     O3        0.523060604293522    0.229560145179278    0.966843761708704  0.0000
  O2     O2        0.519304112369815    0.780790835766673    0.965015534386647  0.0000
  O3     O3        0.030026309049868    0.730315715443545    0.966259467670460  0.0000
  O2     O2        0.011413324672809    0.274229678962838    0.956265107917968  0.0000
  O3     O3        0.301516014062515    0.157342052826838    0.770874669695842  0.0000
  O2     O2        0.675395355737304    0.172091655043872    0.226805083727692  0.0000
  O2     O2        0.674466354913721    0.837505991142459    0.226538741725758  0.0000
  O2     O2        0.303287090285635    0.843109198562397    0.768197492124933  0.0000
  O3     O3        0.816554835114672    0.654644858587200    0.768884305103959  0.0000
  O2     O2        0.185802704855117    0.680253662088162    0.230648502230526  0.0000
  O3     O3        0.155693256734616    0.335982576422963    0.220279949518507  0.0000
  O2     O2        0.797050455391056    0.339368338906868    0.766842635404565  0.0000
  O3     O3        0.318607961069561    0.342063859205603    0.793061454852722  0.0000
  O2     O2        0.643896095182050    0.342675987945149    0.184635880372427  0.0000
  O2     O2        0.627192487201368    0.667117223057055    0.187972702161962  0.0000
  O3     O3        0.329997325141221    0.674147948569571    0.813877069068238  0.0000
  O3     O3        0.820541707950458    0.841191831013107    0.792970067470550  0.0000
  O2     O2        0.130696510786338    0.846889935159164    0.181309558063655  0.0000
  O2     O2        0.129391348520470    0.164843482137107    0.185772181573076  0.0000
  O2     O2        0.824781546723833    0.167483102147436    0.796104317071219  0.0000
  O3     O3        0.275313956306837    0.249172634424382    0.042487802644668  0.0000
  O2     O2        0.781499453717575    0.258263041567196    0.027200397658494  0.0000
  O3     O3        0.779097544060377    0.741387170972569    0.039917849202885  0.0000
  O2     O2        0.287360525275520    0.771950674408719    0.036244700217041  0.0000
  O3     O3        0.432089577181919    0.378140282537126    0.281735937957670  0.0000
  O2     O2        0.533717671370368    0.369724793833196    0.688134692484801  0.0000
  O3     O3        0.554508398045211    0.640430685154398    0.696772064143696  0.0000
  O2     O2        0.439173564627725    0.620861426393424    0.324280459518263  0.0000
  O2     O2        0.925763100323552    0.889825246678216    0.285325611295359  0.0000
  O2     O2        0.040021665094455    0.875977612544911    0.706346432316097  0.0000
  O2     O2        0.040023427367083    0.128651460494941    0.701894591685248  0.0000
  O2     O2        0.927012442391442    0.118016209733574    0.293532072270829  0.0000
  O3     O3        0.289239539221319    0.401080699319496    0.513048813533283  0.0000
  O2     O2        0.673162400685539    0.383152108743575    0.480094172548093  0.0000
  O2     O2        0.690059287349979    0.617736096092192    0.483100083298815  0.0000
  O3     O3        0.282912912992177    0.615246128910125    0.507693129588410  0.0000
  O2     O2        0.799245093236747    0.887587476320949    0.507138873107830  0.0000
  O2     O2        0.166231355441213    0.876008629168235    0.482941089193993  0.0000
  O2     O2        0.170409351359912    0.129082047528611    0.483694751502620  0.0000
  O2     O2        0.794627600171105    0.120470709561201    0.508599023566144  0.0000
  O3     O3        0.235544507150383    0.512663125106934    0.261535937080348  0.0000
  O2     O2        0.703960315298454    0.499523824332924    0.703291573164569  0.0000
  O2     O2        0.731554110610610    0.004569774948087    0.283430320053755  0.0000
  O2     O2        0.212381288240475    0.001162011393388    0.691004004148519  0.0000
  O3     O3        0.390772245177548    0.501611941836215    0.753855422213886  0.0000
  O2     O2        0.603638398462965    0.503221272574948    0.258516436936179  0.0000
  O2     O2        0.870554645338937    0.003792610156033    0.732182532890103  0.0000
  O2     O2        0.116270871284326    0.004187084446861    0.275302032524798  0.0000
