data_c00396.vasp
_audit_creation_method             Generated by GULP
_audit_author_name                 Salvador R. G. Balestra
_symmetry_space_group_name_H-M     'P 1             '
_symmetry_Int_Tables_number        1

loop_
_symmetry_equiv_pos_site_id
_symmetry_equiv_pos_as_xyz
_cell_length_a                       10.2599
_cell_length_b                       15.1842
_cell_length_c                        8.9051
_cell_angle_alpha                   90.4370
_cell_angle_beta                   104.8833
_cell_angle_gamma                   90.4437

loop_
_atom_site_label
_atom_site_type_symbol
_atom_site_fract_x
_atom_site_fract_y
_atom_site_fract_z
_atom_site_charge
  Ge     Ge        0.351599999999962    0.244500000000016    0.893900000000031  0.0000
  Ge     Ge        0.146367672332225    0.728133776627584    0.088141381296898  0.0000
  Ge     Ge        0.313828549904579    0.378682635374861    0.337764126830800  0.0000
  Ge     Ge        0.114019301787701    0.089470424818560    0.286002666599323  0.0000
  Si     Si        0.644717431057912    0.227084649144603    0.096587288967138  0.0000
  Si     Si        0.646449817006268    0.746796285770873    0.090880370367671  0.0000
  Si     Si        0.356331954313583    0.753465328795742    0.881005238059456  0.0000
  Si     Si        0.846345628054376    0.740735899612607    0.877868647368973  0.0000
  Si     Si        0.134172073447350    0.250631229726158    0.088986471008646  0.0000
  Si     Si        0.840589421685738    0.247472415871267    0.880690496544739  0.0000
  Si     Si        0.716433430237646    0.397340125858171    0.655256262012567  0.0000
  Si     Si        0.715236932987747    0.596491468221781    0.644141180077329  0.0000
  Si     Si        0.312628615654873    0.587661796784428    0.313745075066652  0.0000
  Si     Si        0.820529472191033    0.883533544128715    0.323100134411094  0.0000
  Si     Si        0.212725488986865    0.898453414106791    0.666717089062512  0.0000
  Si     Si        0.209196034045294    0.100156190283406    0.650407025520908  0.0000
  Si     Si        0.812945271623490    0.088351092100606    0.314156448382342  0.0000
  Si     Si        0.416574662413695    0.399431398439928    0.693041694794445  0.0000
  Si     Si        0.614706210710569    0.383924543706492    0.301505003479142  0.0000
  Si     Si        0.608643029360115    0.588202381833480    0.287013202799163  0.0000
  Si     Si        0.415259309191938    0.600128581220646    0.668735627526159  0.0000
  Si     Si        0.913393654365110    0.894103617307267    0.681354856004264  0.0000
  Si     Si        0.119505772607057    0.884530167150309    0.305766202087727  0.0000
  Si     Si        0.907976734917360    0.096786678668378    0.669916841202846  0.0000
  O3     O3        0.487535350081056    0.207863557529431    0.033228839061869  0.0000
  O2     O2        0.490263470856375    0.770553713379763    0.018824071757120  0.0000
  O3     O3        0.976268945526374    0.715982988572745    0.009000056780883  0.0000
  O2     O2        0.975412944234460    0.265405359598402    0.014991652983938  0.0000
  O3     O3        0.317804422977592    0.167297887504756    0.747569801056179  0.0000
  O2     O2        0.694451160275193    0.145263899923670    0.209049026782281  0.0000
  O2     O2        0.704979468023178    0.819978096362238    0.223018233640888  0.0000
  O2     O2        0.329851580849185    0.839079846467726    0.770560462392841  0.0000
  O2     O2        0.821615628084976    0.666828970902204    0.741461430182196  0.0000
  O3     O3        0.191676386285992    0.638316763636373    0.204217645826535  0.0000
  O3     O3        0.182406704781146    0.313771587637897    0.237625506744294  0.0000
  O2     O2        0.816754500353619    0.330965605810845    0.766496867029019  0.0000
  O3     O3        0.396424751624028    0.345853731970454    0.835805255419699  0.0000
  O2     O2        0.673069425667462    0.320408293366597    0.189478959153557  0.0000
  O2     O2        0.660827972204050    0.649756571964985    0.167738127870355  0.0000
  O2     O2        0.370934868436713    0.667497562480631    0.782316863524417  0.0000
  O2     O2        0.862060952233129    0.835564520541531    0.803550022936480  0.0000
  O3     O3        0.184477886998319    0.819999484663159    0.206651512322724  0.0000
  O3     O3        0.163628942668484    0.151244682844695    0.149777975094062  0.0000
  O2     O2        0.853371782703038    0.159357045076229    0.784414102284319  0.0000
  O3     O3        0.214516814574326    0.269064333046052    0.961731590681170  0.0000
  O2     O2        0.715426817632266    0.232512331421235    0.954889720542831  0.0000
  O2     O2        0.720768096440387    0.747097387216377    0.953791741978947  0.0000
  O3     O3        0.227799921025074    0.736043415768461    0.944532559475439  0.0000
  O3     O3        0.463530715416765    0.352162367150044    0.293453870297470  0.0000
  O2     O2        0.566391881708806    0.386854538429554    0.672568117481821  0.0000
  O2     O2        0.572170353507939    0.613728260179349    0.679261251479504  0.0000
  O2     O2        0.453753052188645    0.612603710497809    0.273593212412930  0.0000
  O2     O2        0.963108746125580    0.857775169797045    0.291048697044667  0.0000
  O2     O2        0.070218865407162    0.873040290141432    0.700794594853851  0.0000
  O2     O2        0.062078264383731    0.122196067088467    0.676362274370883  0.0000
  O3     O3        0.950701688362810    0.118380688607339    0.279337544504508  0.0000
  O3     O3        0.319111901893311    0.365626245964507    0.531445760002868  0.0000
  O2     O2        0.710790574112687    0.375994691911850    0.475857715289878  0.0000
  O2     O2        0.700944966574855    0.607286138214703    0.460678651525773  0.0000
  O2     O2        0.326371572326411    0.613743632440533    0.493635104086428  0.0000
  O2     O2        0.828282352978176    0.872588019164114    0.505509893955871  0.0000
  O2     O2        0.203070876286295    0.882851394902472    0.485639300991782  0.0000
  O3     O3        0.210216900996190    0.109378232589125    0.472636444198991  0.0000
  O2     O2        0.817286106911941    0.106485836614428    0.494558193849890  0.0000
  O3     O3        0.280177230927121    0.485765499576374    0.284942134128742  0.0000
  O2     O2        0.767486431818968    0.498026510430061    0.695700320904740  0.0000
  O2     O2        0.786735294829110    0.984529247651799    0.274987921438786  0.0000
  O2     O2        0.247541288235526    0.000621253207302    0.708239517740007  0.0000
  O2     O2        0.389547136786926    0.501899437293099    0.722015262785073  0.0000
  O2     O2        0.617616022486047    0.485081713856000    0.244634857539589  0.0000
  O2     O2        0.897602275938855    0.996235825027654    0.723977143666726  0.0000
  O3     O3        0.125605241305526    0.981116701797650    0.238142514317305  0.0000
