data_c00316.vasp
_audit_creation_method             Generated by GULP
_audit_author_name                 Salvador R. G. Balestra
_symmetry_space_group_name_H-M     'P 1             '
_symmetry_Int_Tables_number        1

loop_
_symmetry_equiv_pos_site_id
_symmetry_equiv_pos_as_xyz
_cell_length_a                       10.2181
_cell_length_b                       15.2340
_cell_length_c                        8.9567
_cell_angle_alpha                   90.5024
_cell_angle_beta                   105.1283
_cell_angle_gamma                   90.0018

loop_
_atom_site_label
_atom_site_type_symbol
_atom_site_fract_x
_atom_site_fract_y
_atom_site_fract_z
_atom_site_charge
  Ge     Ge        0.351599999999962    0.244500000000016    0.893900000000031  0.0000
  Ge     Ge        0.387312540619180    0.756652375324521    0.895487829738212  0.0000
  Ge     Ge        0.919376726050844    0.894628450684128    0.695490864071054  0.0000
  Ge     Ge        0.117185966254568    0.095979757051462    0.302192089342000  0.0000
  Si     Si        0.650112140794489    0.237235109852816    0.112279988201180  0.0000
  Si     Si        0.688923429865133    0.745673535181112    0.109213641436130  0.0000
  Si     Si        0.885840538240335    0.735913793050843    0.898454601832537  0.0000
  Si     Si        0.177567706124935    0.738645981171259    0.102415984596528  0.0000
  Si     Si        0.143645554801949    0.256255048427892    0.098692198915665  0.0000
  Si     Si        0.848329884768859    0.252346073303457    0.898740665213738  0.0000
  Si     Si        0.317555453036046    0.393286524876091    0.327483895400067  0.0000
  Si     Si        0.711341143773997    0.396353544459073    0.673746989763814  0.0000
  Si     Si        0.712232334563263    0.599241468098258    0.670409951861146  0.0000
  Si     Si        0.319457563619663    0.595305078529964    0.323251312096279  0.0000
  Si     Si        0.812980619673417    0.895298181980723    0.337909139426821  0.0000
  Si     Si        0.219317713304163    0.894046766528511    0.666263455599150  0.0000
  Si     Si        0.213849333910508    0.099097660521055    0.663887184993962  0.0000
  Si     Si        0.811629931077638    0.095691067768952    0.331011108816524  0.0000
  Si     Si        0.409672977398840    0.397107534237163    0.682446138431578  0.0000
  Si     Si        0.621569088814875    0.393389375164039    0.316726888575042  0.0000
  Si     Si        0.621861409116182    0.595040730336672    0.312810156675376  0.0000
  Si     Si        0.410086694466107    0.600729145376032    0.679382903722030  0.0000
  Si     Si        0.117870735705988    0.892758285063674    0.313890255292126  0.0000
  Si     Si        0.917579800519755    0.102037778380650    0.689053905602703  0.0000
  O3     O3        0.491500596815388    0.224994715490384    0.042062579724999  0.0000
  O3     O3        0.558802402308889    0.765403151761154    0.973330491033353  0.0000
  O2     O2        0.046447498970516    0.718349958637037    0.962262328215383  0.0000
  O2     O2        0.982129571521918    0.270498289339479    0.035642991354765  0.0000
  O3     O3        0.333251709037957    0.155850969514247    0.769858091397955  0.0000
  O2     O2        0.695886035580758    0.158112044052868    0.231558944765235  0.0000
  O2     O2        0.711336079555267    0.827784931215329    0.227636963781936  0.0000
  O3     O3        0.345363552433308    0.843296062022898    0.770018909742518  0.0000
  O2     O2        0.829590391853286    0.660846850137383    0.770165520468888  0.0000
  O2     O2        0.205423335891487    0.654961520009927    0.214885817121320  0.0000
  O2     O2        0.201423598488045    0.332096626220797    0.225226553312881  0.0000
  O2     O2        0.822938192981094    0.334796942416477    0.782819209962639  0.0000
  O3     O3        0.355372490348716    0.342380433340838    0.801053874044989  0.0000
  O2     O2        0.679222709518241    0.330019398482630    0.205371011129460  0.0000
  O2     O2        0.675681531516079    0.656044891726102    0.198056562592889  0.0000
  O3     O3        0.349284664560182    0.659692004549931    0.790602225661937  0.0000
  O3     O3        0.860411753137036    0.830680460569341    0.821261542382187  0.0000
  O2     O2        0.151826786283770    0.823666266893076    0.196163818098706  0.0000
  O3     O3        0.174126280335548    0.162262846887550    0.179433253777301  0.0000
  O2     O2        0.861144812085788    0.164778815952090    0.802280632242133  0.0000
  O3     O3        0.209525131088818    0.259482896940628    0.958240156914264  0.0000
  O2     O2        0.723749204731729    0.237621351716811    0.974285739291703  0.0000
  O2     O2        0.817564418558506    0.732004635782718    0.040201064667052  0.0000
  O3     O3        0.305775306705560    0.759485393247632    0.039352494364648  0.0000
  O2     O2        0.461581392690521    0.374120543295470    0.291121330332623  0.0000
  O2     O2        0.567580827856756    0.374429103978870    0.705639040225071  0.0000
  O2     O2        0.569893342140101    0.623279042742952    0.706504676878880  0.0000
  O2     O2        0.462560939296902    0.613357657939264    0.285181133762631  0.0000
  O2     O2        0.966241008697676    0.880364449064803    0.329171898575633  0.0000
  O3     O3        0.081378359642978    0.859575084579482    0.700447024009705  0.0000
  O2     O2        0.069868312355125    0.131063692561063    0.690222343172978  0.0000
  O3     O3        0.950567037180943    0.119946051822885    0.291975418516901  0.0000
  O2     O2        0.328104482694807    0.373909605559480    0.506444239893978  0.0000
  O2     O2        0.702762748841855    0.376475300933350    0.494179547363233  0.0000
  O2     O2        0.701490607677476    0.615524049105662    0.489890950422088  0.0000
  O2     O2        0.331892297357105    0.619575148031898    0.501410035488222  0.0000
  O3     O3        0.810455325990874    0.881856127348198    0.513156744931104  0.0000
  O2     O2        0.216700018248057    0.881225993538323    0.485645744159646  0.0000
  O3     O3        0.214782556817275    0.112379618362157    0.488008626160719  0.0000
  O2     O2        0.823912372971209    0.108403942056202    0.513630922684666  0.0000
  O2     O2        0.276522309792822    0.494163712823762    0.289113517621869  0.0000
  O2     O2        0.750408281119866    0.498054831933926    0.712067547015318  0.0000
  O2     O2        0.769590154968808    0.994737980810532    0.284671658286321  0.0000
  O2     O2        0.231867938040807    0.997103868664683    0.708438937134852  0.0000
  O2     O2        0.392564060986213    0.499450976201528    0.716754879854401  0.0000
  O2     O2        0.643966228662481    0.493610233531151    0.272169382639827  0.0000
  O3     O3        0.917248536236857    0.003587642997033    0.749458426925234  0.0000
  O3     O3        0.134107189877233    0.988259051246250    0.249165976111203  0.0000
