data_c00395.vasp
_audit_creation_method             Generated by GULP
_audit_author_name                 Salvador R. G. Balestra
_symmetry_space_group_name_H-M     'P 1             '
_symmetry_Int_Tables_number        1

loop_
_symmetry_equiv_pos_site_id
_symmetry_equiv_pos_as_xyz
_cell_length_a                       10.3413
_cell_length_b                       15.1956
_cell_length_c                        8.9363
_cell_angle_alpha                   89.6080
_cell_angle_beta                   105.1810
_cell_angle_gamma                   89.9238

loop_
_atom_site_label
_atom_site_type_symbol
_atom_site_fract_x
_atom_site_fract_y
_atom_site_fract_z
_atom_site_charge
  Ge     Ge        0.351599999999962    0.244500000000016    0.893900000000031  0.0000
  Ge     Ge        0.123724153973786    0.747753010235974    0.083335177874041  0.0000
  Ge     Ge        0.285233519152388    0.405949700739910    0.312919679374461  0.0000
  Ge     Ge        0.089023089697172    0.906407585266919    0.294388466076730  0.0000
  Si     Si        0.653085517616564    0.249049881128938    0.097330810250463  0.0000
  Si     Si        0.623250280761825    0.760397867660855    0.092818151525234  0.0000
  Si     Si        0.333760003489604    0.756986372696622    0.880750615581671  0.0000
  Si     Si        0.823188694924998    0.744367861366443    0.882275962524272  0.0000
  Si     Si        0.135647689312019    0.263245563991158    0.092460838914182  0.0000
  Si     Si        0.847653419072079    0.257172978180567    0.880340640452747  0.0000
  Si     Si        0.682421692061505    0.398205545501091    0.653672327628201  0.0000
  Si     Si        0.690466766267494    0.600400804345830    0.654248443138117  0.0000
  Si     Si        0.293306784537573    0.610689993429786    0.320783419623795  0.0000
  Si     Si        0.784550716599785    0.902104168457948    0.315026170029203  0.0000
  Si     Si        0.181572234837053    0.897711047778544    0.655194636956758  0.0000
  Si     Si        0.180918540791731    0.104073061466138    0.662817937253600  0.0000
  Si     Si        0.786517177593620    0.102438237664670    0.326032276145535  0.0000
  Si     Si        0.386070834384911    0.402985756395369    0.679833387775748  0.0000
  Si     Si        0.586026687948460    0.400881971894731    0.295505274732303  0.0000
  Si     Si        0.589494464765007    0.605261050330445    0.299882718490001  0.0000
  Si     Si        0.395589950097246    0.603225975117636    0.677560484448207  0.0000
  Si     Si        0.885769916766735    0.897719596763390    0.676143907548997  0.0000
  Si     Si        0.087010575716760    0.110647583464752    0.309709436156766  0.0000
  Si     Si        0.885048427748361    0.100345407969192    0.683745741921367  0.0000
  O3     O3        0.519085257620366    0.224615066562010    0.972404176063446  0.0000
  O2     O2        0.467026545138229    0.778765696640261    0.013880406677057  0.0000
  O3     O3        0.956744541875494    0.723159841076352    0.011101727411041  0.0000
  O2     O2        0.004522602380557    0.276280852941281    0.950678781210946  0.0000
  O3     O3        0.299060502499867    0.156879958167755    0.772120326429858  0.0000
  O2     O2        0.681944810262997    0.172072448685101    0.227345369965720  0.0000
  O2     O2        0.671254938517966    0.838422688243280    0.215195056278242  0.0000
  O2     O2        0.300166478432796    0.842006911408694    0.768115594277954  0.0000
  O2     O2        0.799394994614272    0.663942543728432    0.760674950432798  0.0000
  O3     O3        0.180866477558519    0.678264101369329    0.239937763880017  0.0000
  O3     O3        0.153784324191270    0.345772971581698    0.205193649112566  0.0000
  O2     O2        0.793696185902020    0.333355750818404    0.754276067115498  0.0000
  O3     O3        0.329781362385594    0.342793269948037    0.793175371177684  0.0000
  O2     O2        0.643709937869728    0.342661501870400    0.178127121783751  0.0000
  O2     O2        0.644302158408842    0.666825302872305    0.183468782801354  0.0000
  O2     O2        0.349593152636021    0.669449389343987    0.789424756526363  0.0000
  O2     O2        0.833149867397061    0.835136321646606    0.791319581552774  0.0000
  O1     O1        0.141892584470100    0.851705777107331    0.156976536907113  0.0000
  O2     O2        0.125844183942849    0.175883548209928    0.189841153418682  0.0000
  O2     O2        0.827711571061345    0.162162983213886    0.796783010218699  0.0000
  O3     O3        0.267390165591823    0.252812319665203    0.033290227265574  0.0000
  O2     O2        0.774270161481985    0.256873031073202    0.016740114680838  0.0000
  O2     O2        0.701614303282073    0.756839804789506    0.960865301930389  0.0000
  O3     O3        0.210310481899717    0.733785024122142    0.947953337307926  0.0000
  O3     O3        0.434315650742689    0.373101241684789    0.276559946833071  0.0000
  O2     O2        0.539579459489535    0.376620746759046    0.685685099119864  0.0000
  O2     O2        0.547947027973416    0.624462020617311    0.681965551467195  0.0000
  O2     O2        0.437878085075232    0.634357086149434    0.291728851844381  0.0000
  O3     O3        0.918764638302396    0.888894314867275    0.262440207915157  0.0000
  O2     O2        0.043652217916630    0.879654125591254    0.703793171805017  0.0000
  O2     O2        0.042830631476530    0.119889872747699    0.711796807472522  0.0000
  O2     O2        0.927605142434556    0.110395728778863    0.284962233425445  0.0000
  O3     O3        0.295561466525949    0.391824414904681    0.506605800940845  0.0000
  O2     O2        0.672407326829090    0.384694393290606    0.472360086796221  0.0000
  O2     O2        0.684293084746780    0.616638283793604    0.473755873562164  0.0000
  O2     O2        0.303303090802795    0.612841834708430    0.503758957020269  0.0000
  O2     O2        0.809556245027084    0.879462224143020    0.497737033949742  0.0000
  O3     O3        0.165451995001616    0.869651543161808    0.480381280558644  0.0000
  O2     O2        0.160810554885955    0.137719403167738    0.485986697951027  0.0000
  O2     O2        0.805073030258487    0.121916278979648    0.507236285109190  0.0000
  O3     O3        0.253636030448998    0.513804874788092    0.257507535302256  0.0000
  O2     O2        0.726607225245413    0.498553763387036    0.699510737617637  0.0000
  O2     O2        0.732901835717493    0.003178861014387    0.286935896618284  0.0000
  O2     O2        0.216610794554222    0.000821660497756    0.672930775063879  0.0000
  O2     O2        0.382690928679050    0.503833840868583    0.735483191619487  0.0000
  O2     O2        0.593415816808018    0.503695910715894    0.249852048611166  0.0000
  O2     O2        0.862631833183581    0.998357707757940    0.721396994807679  0.0000
  O3     O3        0.131371807383570    0.014282209994555    0.276094683488213  0.0000
