data_c00336.vasp
_audit_creation_method             Generated by GULP
_audit_author_name                 Salvador R. G. Balestra
_symmetry_space_group_name_H-M     'P 1             '
_symmetry_Int_Tables_number        1

loop_
_symmetry_equiv_pos_site_id
_symmetry_equiv_pos_as_xyz
_cell_length_a                       10.3088
_cell_length_b                       15.1897
_cell_length_c                        8.9162
_cell_angle_alpha                   90.4624
_cell_angle_beta                   104.8220
_cell_angle_gamma                   89.7148

loop_
_atom_site_label
_atom_site_type_symbol
_atom_site_fract_x
_atom_site_fract_y
_atom_site_fract_z
_atom_site_charge
  Ge     Ge        0.351599999999962    0.244500000000016    0.893900000000031  0.0000
  Ge     Ge        0.883436496751002    0.740436890905769    0.894738460298459  0.0000
  Ge     Ge        0.710505199006919    0.392515993374078    0.671165056231599  0.0000
  Ge     Ge        0.215864673458080    0.892496576279189    0.665891962225467  0.0000
  Si     Si        0.649203622906977    0.236325297950116    0.103363722721892  0.0000
  Si     Si        0.679827750870403    0.750351363192700    0.112686759698054  0.0000
  Si     Si        0.388639535261031    0.755465639355099    0.899105815640664  0.0000
  Si     Si        0.178258427219444    0.740485351858370    0.097869206555220  0.0000
  Si     Si        0.146545097030691    0.254766121212979    0.110622535105870  0.0000
  Si     Si        0.857298353295423    0.249421448157668    0.901776633103634  0.0000
  Si     Si        0.313173238239341    0.397424359583353    0.332343185893639  0.0000
  Si     Si        0.714566702601658    0.598853855278651    0.666492280122003  0.0000
  Si     Si        0.318302135695856    0.600180388650051    0.332127568153900  0.0000
  Si     Si        0.816501086212740    0.897152197094934    0.336553000106761  0.0000
  Si     Si        0.215291641996360    0.099154533587499    0.664034795334434  0.0000
  Si     Si        0.817454461976235    0.099248094095330    0.332949748512467  0.0000
  Si     Si        0.410191680259046    0.397409146636309    0.689038107249163  0.0000
  Si     Si        0.611797916280512    0.394640967348306    0.305581151954348  0.0000
  Si     Si        0.614546066992408    0.594670392668753    0.307548897936877  0.0000
  Si     Si        0.420014509213331    0.602953949513169    0.686924091497126  0.0000
  Si     Si        0.916446953690531    0.896927248619523    0.690878770208514  0.0000
  Si     Si        0.114185163807248    0.895013367428368    0.302758179960534  0.0000
  Si     Si        0.113635698251036    0.094900621915190    0.305091166942078  0.0000
  Si     Si        0.922650663421135    0.102613188380225    0.688326697999150  0.0000
  O3     O3        0.495783508807461    0.214947801808467    0.027755058413169  0.0000
  O2     O2        0.544379366550353    0.770553549792598    0.982823230103747  0.0000
  O3     O3        0.050100469855459    0.713121862028800    0.966472451849086  0.0000
  O2     O2        0.988151247275596    0.269719156880907    0.039454300530262  0.0000
  O3     O3        0.328993031091489    0.164800840229274    0.750761203301020  0.0000
  O2     O2        0.705153472880784    0.162017743675683    0.231029304980288  0.0000
  O2     O2        0.706486242676070    0.832343200549172    0.233136927705370  0.0000
  O3     O3        0.345702669497800    0.831220469191529    0.774197289594903  0.0000
  O3     O3        0.830280007177388    0.662849574186265    0.751554850379076  0.0000
  O2     O2        0.209374934233608    0.665256329289715    0.229169050318254  0.0000
  O2     O2        0.199997208509942    0.335388538583583    0.228324715547771  0.0000
  O3     O3        0.835547096266969    0.326966812175648    0.778388292356786  0.0000
  O3     O3        0.351608632880741    0.346854750567241    0.811362251081901  0.0000
  O2     O2        0.659686967840401    0.332108803320197    0.184882365483877  0.0000
  O2     O2        0.669589876622170    0.659379867061758    0.199151422042669  0.0000
  O2     O2        0.365509766340625    0.661587597555329    0.808153362763023  0.0000
  O3     O3        0.858805282729205    0.843803440965455    0.811810336050968  0.0000
  O2     O2        0.147517766069008    0.832686617807703    0.172634873474911  0.0000
  O2     O2        0.171705434969119    0.162230672781156    0.201789199286443  0.0000
  O2     O2        0.868576703587908    0.157758295007274    0.813064602284269  0.0000
  O3     O3        0.218205205004058    0.249759321029467    0.974395812027691  0.0000
  O2     O2        0.729316747654784    0.240439710060835    0.971719041489727  0.0000
  O3     O3        0.803940157369853    0.737305945470621    0.040211756231397  0.0000
  O2     O2        0.303888779278332    0.756371778494275    0.026380459261683  0.0000
  O2     O2        0.456354796369648    0.374408862528282    0.299890851810803  0.0000
  O3     O3        0.559060198783558    0.361828916879475    0.702377967937450  0.0000
  O2     O2        0.573293543971562    0.630081682770317    0.698580538595794  0.0000
  O2     O2        0.460928888081785    0.618954084496325    0.297698283769015  0.0000
  O2     O2        0.962020362141085    0.877344105575464    0.309736574207351  0.0000
  O3     O3        0.065757869833057    0.861259885478477    0.700536298333476  0.0000
  O2     O2        0.074522752121429    0.130853383958794    0.697460478960402  0.0000
  O2     O2        0.958773731734331    0.117956013159639    0.294234580893393  0.0000
  O2     O2        0.320781676354789    0.381859231392305    0.512776127340592  0.0000
  O3     O3        0.703180858760700    0.380116958588383    0.476466700119475  0.0000
  O2     O2        0.703423623119777    0.601939149992412    0.483053050254042  0.0000
  O2     O2        0.328190343734443    0.619564535529601    0.513035074981541  0.0000
  O2     O2        0.823350797324016    0.881435546941485    0.516650979855812  0.0000
  O3     O3        0.210625036954465    0.879255482441346    0.471166356829455  0.0000
  O2     O2        0.202175403621460    0.102106397701785    0.480531105557773  0.0000
  O2     O2        0.829873705442054    0.118940049456796    0.514576412203357  0.0000
  O2     O2        0.274761311872048    0.499175978866559    0.290168042212815  0.0000
  O3     O3        0.746597709919318    0.500237380766075    0.725912374641593  0.0000
  O2     O2        0.774105112029130    0.998058777659593    0.292524922919636  0.0000
  O3     O3        0.248666345678367    0.000585801362571    0.721410009640103  0.0000
  O2     O2        0.414250533236515    0.501101530790798    0.729649973441568  0.0000
  O2     O2        0.624137300575694    0.494570477542042    0.249505242240750  0.0000
  O2     O2        0.920546981444239    0.000335664612207    0.731409493320079  0.0000
  O2     O2        0.126597594229005    0.995238680850484    0.246588966762903  0.0000
