data_c00385.vasp
_audit_creation_method             Generated by GULP
_audit_author_name                 Salvador R. G. Balestra
_symmetry_space_group_name_H-M     'P 1             '
_symmetry_Int_Tables_number        1

loop_
_symmetry_equiv_pos_site_id
_symmetry_equiv_pos_as_xyz
_cell_length_a                       10.2992
_cell_length_b                       15.1652
_cell_length_c                        8.9204
_cell_angle_alpha                   90.0573
_cell_angle_beta                   104.6128
_cell_angle_gamma                   90.1246

loop_
_atom_site_label
_atom_site_type_symbol
_atom_site_fract_x
_atom_site_fract_y
_atom_site_fract_z
_atom_site_charge
  Ge     Ge        0.351599999999962    0.244500000000016    0.893900000000031  0.0000
  Ge     Ge        0.134847586429264    0.743890222370179    0.081728108816091  0.0000
  Ge     Ge        0.308380932687021    0.390459493276142    0.331176423527388  0.0000
  Ge     Ge        0.306516264120164    0.604759737253194    0.323389694576341  0.0000
  Si     Si        0.645595472224509    0.240864868079352    0.095752976834117  0.0000
  Si     Si        0.640507602834560    0.759559097544765    0.088280180974907  0.0000
  Si     Si        0.354468232701999    0.759578869639721    0.884276477813402  0.0000
  Si     Si        0.836208121174813    0.748147279244727    0.871857309778505  0.0000
  Si     Si        0.132010576685323    0.258029624767567    0.091748677368788  0.0000
  Si     Si        0.841422071330555    0.255097858630370    0.878622296482042  0.0000
  Si     Si        0.710396301781173    0.401906135623792    0.650520993503480  0.0000
  Si     Si        0.709586035214947    0.601697501774757    0.640777340121297  0.0000
  Si     Si        0.813532525945296    0.897674031568241    0.315009170423842  0.0000
  Si     Si        0.205004371249180    0.898681341874501    0.654056650638934  0.0000
  Si     Si        0.206103661893663    0.103489671610675    0.652345226610627  0.0000
  Si     Si        0.812565203243746    0.100848203895613    0.318628966368630  0.0000
  Si     Si        0.413486773874644    0.402586825121713    0.690228820719704  0.0000
  Si     Si        0.605785032794844    0.396508337605312    0.296359997704231  0.0000
  Si     Si        0.604403511442425    0.602691354019415    0.289644661233506  0.0000
  Si     Si        0.412086422940571    0.604674427268840    0.678944860748696  0.0000
  Si     Si        0.907735771753185    0.900052544111077    0.673133436313490  0.0000
  Si     Si        0.112132356453988    0.899529755746710    0.296967382907954  0.0000
  Si     Si        0.109766015518724    0.102483726033317    0.297536653293542  0.0000
  Si     Si        0.908657361592560    0.103179632460850    0.674867926821156  0.0000
  O3     O3        0.492138299929339    0.214058840919191    0.031580231644785  0.0000
  O2     O2        0.484768546154130    0.785827137418294    0.019752638443649  0.0000
  O3     O3        0.967725950796975    0.725557738771710    0.000391315780137  0.0000
  O2     O2        0.976131788274059    0.274489367941704    0.009358269378208  0.0000
  O3     O3        0.320482900887963    0.164139313128357    0.752455398166267  0.0000
  O2     O2        0.702385521957964    0.164687303366819    0.219006123850068  0.0000
  O2     O2        0.700775022702915    0.834047300731981    0.215123513942444  0.0000
  O2     O2        0.321099000273790    0.838286176762651    0.757897027902917  0.0000
  O2     O2        0.811712867354895    0.670847037343562    0.743363643998579  0.0000
  O1     O1        0.176680271705588    0.663727573052488    0.217022753051397  0.0000
  O3     O3        0.176977575620047    0.328666303443762    0.226444821738524  0.0000
  O2     O2        0.816056316180620    0.335394565613231    0.755944634731416  0.0000
  O3     O3        0.384058998023533    0.345981351676369    0.825641752919162  0.0000
  O2     O2        0.663974017057988    0.336837826256298    0.178737954696018  0.0000
  O2     O2        0.657759527516991    0.663096202672809    0.168510892984910  0.0000
  O2     O2        0.387820969623078    0.668786468866017    0.810163773936620  0.0000
  O2     O2        0.851397606639131    0.840948101747502    0.790215631141061  0.0000
  O3     O3        0.167138854341961    0.844372078615071    0.176968866094869  0.0000
  O2     O2        0.158240807990041    0.161686529750971    0.173550165374118  0.0000
  O2     O2        0.852241679605401    0.164048219605235    0.789894629274923  0.0000
  O3     O3        0.215007324025994    0.263365215758555    0.964753206499022  0.0000
  O2     O2        0.717737844804697    0.244726541378589    0.955922112180998  0.0000
  O2     O2        0.711526506818916    0.757474012922189    0.948117230294317  0.0000
  O3     O3        0.226288879983856    0.740266903067934    0.946691734661801  0.0000
  O3     O3        0.458357750550813    0.360711388676789    0.290759615885922  0.0000
  O2     O2        0.563675260516306    0.385117636339362    0.674394165764298  0.0000
  O2     O2        0.560511142144657    0.618248660029667    0.656446926795129  0.0000
  O3     O3        0.457076295899113    0.636481605911354    0.286226160536288  0.0000
  O2     O2        0.954459082303942    0.877380608101380    0.274968468504140  0.0000
  O2     O2        0.064650151007841    0.877961296646309    0.696403551621444  0.0000
  O2     O2        0.065140905146516    0.125036963487542    0.693424621529901  0.0000
  O2     O2        0.953642839943273    0.121655832317640    0.281069599012091  0.0000
  O3     O3        0.315168774788352    0.378345742326925    0.525421866458211  0.0000
  O2     O2        0.702772110787349    0.386767123829175    0.469242516836339  0.0000
  O2     O2        0.705922727722019    0.614042782647952    0.459914695166534  0.0000
  O3     O3        0.309727413182107    0.622250434977406    0.516170196322657  0.0000
  O2     O2        0.826923959927840    0.880696445669327    0.496755065148308  0.0000
  O2     O2        0.191357685838950    0.877389718740317    0.473730536883592  0.0000
  O2     O2        0.193772208303788    0.124623286250907    0.471933506886799  0.0000
  O2     O2        0.823936482675700    0.119377495028513    0.499267350484948  0.0000
  O1     O1        0.276807826914356    0.496843988597770    0.276297649764972  0.0000
  O2     O2        0.757707689892818    0.502548085606502    0.695465043865819  0.0000
  O2     O2        0.771652923010635    0.999238763329214    0.276770539646628  0.0000
  O2     O2        0.242987398849726    0.001008530049331    0.687539280062244  0.0000
  O2     O2        0.395020106015731    0.504617514912685    0.731484803990979  0.0000
  O2     O2        0.599504139880584    0.499027134384152    0.243183924113679  0.0000
  O2     O2        0.891463547976467    0.001484167225685    0.718509827076110  0.0000
  O2     O2        0.132326722278189    0.001420442477852    0.259934650929640  0.0000
