data_c00379.vasp
_audit_creation_method             Generated by GULP
_audit_author_name                 Salvador R. G. Balestra
_symmetry_space_group_name_H-M     'P 1             '
_symmetry_Int_Tables_number        1

loop_
_symmetry_equiv_pos_site_id
_symmetry_equiv_pos_as_xyz
_cell_length_a                       10.2180
_cell_length_b                       15.1993
_cell_length_c                        8.9698
_cell_angle_alpha                   89.9106
_cell_angle_beta                   105.2227
_cell_angle_gamma                   89.4830

loop_
_atom_site_label
_atom_site_type_symbol
_atom_site_fract_x
_atom_site_fract_y
_atom_site_fract_z
_atom_site_charge
  Ge     Ge        0.351599999999962    0.244500000000016    0.893900000000031  0.0000
  Ge     Ge        0.857758274499319    0.746887679737116    0.895016958868958  0.0000
  Ge     Ge        0.594213396016538    0.609014745357225    0.316886453052045  0.0000
  Ge     Ge        0.385732455509582    0.608101590945154    0.691719360402126  0.0000
  Si     Si        0.652234659650721    0.251742496953149    0.102332483948307  0.0000
  Si     Si        0.649785094186963    0.765097408284209    0.102388141146117  0.0000
  Si     Si        0.356833822851182    0.767002825135738    0.898778705518624  0.0000
  Si     Si        0.156641105700903    0.756614338580228    0.103585075452488  0.0000
  Si     Si        0.146760235116180    0.261576812643562    0.107887827172195  0.0000
  Si     Si        0.854154433182503    0.263564619063698    0.894825916690801  0.0000
  Si     Si        0.284256762367193    0.409090866828514    0.323906063359332  0.0000
  Si     Si        0.676773541730309    0.397276339447637    0.663496066877352  0.0000
  Si     Si        0.690213257002835    0.604918481703436    0.671023760677643  0.0000
  Si     Si        0.281713206169461    0.609526584320317    0.335540147345380  0.0000
  Si     Si        0.782977188124228    0.908926020327428    0.326462452969288  0.0000
  Si     Si        0.178046947022429    0.898520080466450    0.663288411099097  0.0000
  Si     Si        0.185227705139138    0.103385338831923    0.667480780382609  0.0000
  Si     Si        0.786062067766447    0.108581285619898    0.333774413902581  0.0000
  Si     Si        0.380935730770292    0.401651442904406    0.683486527336221  0.0000
  Si     Si        0.587046065002896    0.403069035219805    0.307793696400917  0.0000
  Si     Si        0.880257800960494    0.904769337833393    0.683907507381645  0.0000
  Si     Si        0.085119002148183    0.906003224504723    0.308766721249066  0.0000
  Si     Si        0.088663308033717    0.107838853472386    0.314681222741606  0.0000
  Si     Si        0.886825433442294    0.108106064602009    0.689125957134702  0.0000
  O3     O3        0.522856519343816    0.229482462660459    0.967740885049933  0.0000
  O2     O2        0.516624483393881    0.786499916807252    0.964145207621955  0.0000
  O3     O3        0.030342027093749    0.735554138549015    0.963671718617621  0.0000
  O2     O2        0.012678527844251    0.281247899430436    0.970695665996618  0.0000
  O3     O3        0.305765698825481    0.154916525295067    0.775636435072967  0.0000
  O2     O2        0.677302039189851    0.174920171157967    0.231091924047120  0.0000
  O2     O2        0.670677231483337    0.843339609934549    0.228773348553525  0.0000
  O2     O2        0.297874646159548    0.839153625204526    0.766069619407901  0.0000
  O3     O3        0.811127401044771    0.653079648364378    0.789147476821527  0.0000
  O2     O2        0.177643854467773    0.676151120161750    0.224548186690447  0.0000
  O2     O2        0.171127696275059    0.343886553176368    0.226005211821477  0.0000
  O2     O2        0.799066826093717    0.341210752144789    0.771488639527534  0.0000
  O3     O3        0.314456075461899    0.339374724135568    0.784556403034157  0.0000
  O2     O2        0.633922427157728    0.342445403190532    0.185894049270088  0.0000
  O3     O3        0.631602366660382    0.672279489967444    0.177549223169578  0.0000
  O3     O3        0.332715396901542    0.671430825008139    0.823513301123769  0.0000
  O3     O3        0.816812999817108    0.842542266984680    0.786609154200848  0.0000
  O2     O2        0.133117330152307    0.846771912847272    0.186700720712581  0.0000
  O2     O2        0.134012469105632    0.171400755160748    0.196685965891486  0.0000
  O2     O2        0.833371380716601    0.170173004885501    0.805572755557626  0.0000
  O3     O3        0.274737247001506    0.249196311295770    0.041075975217885  0.0000
  O2     O2        0.779921502818781    0.261616461641736    0.030746299975119  0.0000
  O3     O3        0.782491831775949    0.756774131992003    0.043007914688741  0.0000
  O2     O2        0.288592526683509    0.771165126282282    0.040753128039983  0.0000
  O2     O2        0.428185363958562    0.387021323579870    0.290970272038782  0.0000
  O2     O2        0.535297661973025    0.368070992730734    0.696254215953134  0.0000
  O3     O3        0.547722752785994    0.640114883060319    0.693553899336556  0.0000
  O3     O3        0.433807007960817    0.630537012573366    0.332452321438786  0.0000
  O2     O2        0.925618814530797    0.892042216497636    0.286562916980992  0.0000
  O2     O2        0.037357850722687    0.876214938323317    0.704127450060173  0.0000
  O2     O2        0.043808854494956    0.130483258269313    0.705187752959729  0.0000
  O2     O2        0.930848302145126    0.123549214957944    0.300684938246429  0.0000
  O2     O2        0.294550187404472    0.398556882422130    0.504909128645674  0.0000
  O2     O2        0.671962615990858    0.381668015749592    0.483953401346302  0.0000
  O3     O3        0.700574096397486    0.624642650223113    0.498783695988383  0.0000
  O3     O3        0.274564257504568    0.619978219779366    0.510426426461413  0.0000
  O2     O2        0.797665896238527    0.891193445062321    0.506335014589367  0.0000
  O2     O2        0.165822704434071    0.879070237859239    0.483115360809345  0.0000
  O2     O2        0.175322592507361    0.126774229459967    0.489028611027654  0.0000
  O2     O2        0.797783995461206    0.125404457706696    0.514241698891121  0.0000
  O2     O2        0.242908163060780    0.509938743735775    0.275292815635936  0.0000
  O2     O2        0.698341028864928    0.499970695739449    0.701284472862471  0.0000
  O2     O2        0.735432987813804    0.009632348260235    0.287086727581445  0.0000
  O2     O2        0.213244515192481    0.999967256012755    0.697847682985906  0.0000
  O3     O3        0.383660212249190    0.499758057411405    0.747194720987431  0.0000
  O3     O3        0.610435880607696    0.501571939260774    0.262557511192874  0.0000
  O2     O2        0.872124912601024    0.006457647356994    0.733319536401796  0.0000
  O2     O2        0.113919006554438    0.006910351284991    0.272644553745861  0.0000
