data_c00376.vasp
_audit_creation_method             Generated by GULP
_audit_author_name                 Salvador R. G. Balestra
_symmetry_space_group_name_H-M     'P 1             '
_symmetry_Int_Tables_number        1

loop_
_symmetry_equiv_pos_site_id
_symmetry_equiv_pos_as_xyz
_cell_length_a                       10.2298
_cell_length_b                       15.1547
_cell_length_c                        9.0097
_cell_angle_alpha                   89.6015
_cell_angle_beta                   105.1582
_cell_angle_gamma                   89.3952

loop_
_atom_site_label
_atom_site_type_symbol
_atom_site_fract_x
_atom_site_fract_y
_atom_site_fract_z
_atom_site_charge
  Ge     Ge        0.351599999999962    0.244500000000016    0.893900000000031  0.0000
  Ge     Ge        0.851593452387684    0.744501681792411    0.893895916878571  0.0000
  Ge     Ge        0.587390157150525    0.405143608180373    0.304082050774898  0.0000
  Ge     Ge        0.087389685486339    0.905141511724997    0.304083838885216  0.0000
  Si     Si        0.652152264782657    0.252073924607175    0.097041741175087  0.0000
  Si     Si        0.646101401776320    0.765137563273270    0.105721405106090  0.0000
  Si     Si        0.355549417982434    0.761572733632843    0.894039545336515  0.0000
  Si     Si        0.152145027630585    0.752069350337631    0.097042900876183  0.0000
  Si     Si        0.146106813948473    0.265136106468756    0.105722465272748  0.0000
  Si     Si        0.855556029844576    0.261574337350093    0.894037750294469  0.0000
  Si     Si        0.278239214775580    0.410860037589172    0.323312816757825  0.0000
  Si     Si        0.678756653702993    0.395969720221280    0.661475577237856  0.0000
  Si     Si        0.684920746872158    0.603724246567985    0.666020384931735  0.0000
  Si     Si        0.286462936197879    0.610816967818463    0.334938909088535  0.0000
  Si     Si        0.778234202150828    0.910860680630746    0.323316952802031  0.0000
  Si     Si        0.178752254259766    0.895969803665686    0.661474500525388  0.0000
  Si     Si        0.184920147359473    0.103724680098804    0.666023057315592  0.0000
  Si     Si        0.786462393640055    0.110819894929493    0.334939598489287  0.0000
  Si     Si        0.379288865198931    0.402978138335040    0.680576223782289  0.0000
  Si     Si        0.590918378749785    0.610754421158060    0.315408183170393  0.0000
  Si     Si        0.387746118085111    0.606999456810299    0.688584215828707  0.0000
  Si     Si        0.879283431781407    0.902981009400664    0.680572118075566  0.0000
  Si     Si        0.090921075436036    0.110754521985190    0.315409886816000  0.0000
  Si     Si        0.887745291813266    0.107001873118070    0.688580472472766  0.0000
  O3     O3        0.521805055837924    0.224338779717526    0.968298672755601  0.0000
  O2     O2        0.513460362394284    0.781299818642847    0.965680910892462  0.0000
  O3     O3        0.021796319555644    0.724334268241398    0.968300296293992  0.0000
  O2     O2        0.013468087317691    0.281296590506890    0.965678421190992  0.0000
  O3     O3        0.304156147158884    0.155019380104726    0.776600521698792  0.0000
  O2     O2        0.680600970776811    0.181960727964744    0.238764144479752  0.0000
  O2     O2        0.663955673847073    0.848430883791768    0.220278120277445  0.0000
  O2     O2        0.297527545452375    0.841231444760986    0.776759743336572  0.0000
  O3     O3        0.804155173233817    0.655022761526518    0.776591524635517  0.0000
  O2     O2        0.180597884595902    0.681957157280895    0.238766732918262  0.0000
  O2     O2        0.163959984946355    0.348429646994855    0.220278482994421  0.0000
  O2     O2        0.797539763757687    0.341233119197250    0.776754000694780  0.0000
  O3     O3        0.318710410491466    0.342076310097664    0.788694070875060  0.0000
  O3     O3        0.631222887997468    0.347443364494032    0.161892087623885  0.0000
  O2     O2        0.632714304555480    0.676949976104913    0.198865020006962  0.0000
  O2     O2        0.334011706413717    0.668806162369357    0.804120079599964  0.0000
  O3     O3        0.818712384553489    0.842081694249837    0.788700916480612  0.0000
  O3     O3        0.131219938170398    0.847440925394814    0.161891721116935  0.0000
  O2     O2        0.132718362888229    0.176950691012628    0.198868750023994  0.0000
  O2     O2        0.834012662390014    0.168807261906834    0.804120809722582  0.0000
  O3     O3        0.275553472594786    0.252232488742167    0.041183916480959  0.0000
  O2     O2        0.782461562953142    0.255085710715426    0.029664898056985  0.0000
  O3     O3        0.775545849048220    0.752235545784136    0.041178368217278  0.0000
  O2     O2        0.282454592343423    0.755079485724391    0.029665986286647  0.0000
  O3     O3        0.416147068233333    0.393570593179055    0.276947139895267  0.0000
  O2     O2        0.536634164136762    0.375849420349071    0.701182132577984  0.0000
  O2     O2        0.545528756962881    0.627838422138459    0.710121840924442  0.0000
  O2     O2        0.430738164585342    0.617634750279615    0.297746874340906  0.0000
  O3     O3        0.916157049200031    0.893544925527395    0.276999051645034  0.0000
  O2     O2        0.036612944480535    0.875830338866188    0.701125931283593  0.0000
  O2     O2        0.045515865727674    0.127862985008826    0.710078751877217  0.0000
  O2     O2        0.930750094844865    0.117659010513874    0.297788054308962  0.0000
  O2     O2        0.298250754618332    0.389403002137930    0.503441322326018  0.0000
  O3     O3        0.670069786671597    0.370254087335447    0.487802847587535  0.0000
  O2     O2        0.671622716130773    0.633231507116697    0.490119250323333  0.0000
  O2     O2        0.302300282294306    0.628541925493058    0.514770178224120  0.0000
  O2     O2        0.798203064854614    0.889426806339228    0.503446234732343  0.0000
  O3     O3        0.170109205609819    0.870274452841825    0.487804266877077  0.0000
  O2     O2        0.171660317832350    0.133207941520284    0.490118860841673  0.0000
  O2     O2        0.802267507326062    0.128524806135500    0.514770896014234  0.0000
  O2     O2        0.229614874040131    0.512732092851667    0.291336412992615  0.0000
  O2     O2        0.711799619617647    0.499202971657232    0.682225324434512  0.0000
  O2     O2        0.729636391914393    0.012734633277912    0.291298296695925  0.0000
  O2     O2        0.211772958481378    0.999202800548596    0.682271841148820  0.0000
  O2     O2        0.368749897071928    0.504942248227946    0.728444375783768  0.0000
  O3     O3        0.627922603873675    0.512917035071131    0.276292618918986  0.0000
  O2     O2        0.868790256719048    0.004943639637282    0.728469235449370  0.0000
  O3     O3        0.127883060401905    0.012916823865590    0.276253202625326  0.0000
