data_c00398.vasp
_audit_creation_method             Generated by GULP
_audit_author_name                 Salvador R. G. Balestra
_symmetry_space_group_name_H-M     'P 1             '
_symmetry_Int_Tables_number        1

loop_
_symmetry_equiv_pos_site_id
_symmetry_equiv_pos_as_xyz
_cell_length_a                       10.2640
_cell_length_b                       15.1943
_cell_length_c                        8.9396
_cell_angle_alpha                   90.3330
_cell_angle_beta                   104.9338
_cell_angle_gamma                   90.2052

loop_
_atom_site_label
_atom_site_type_symbol
_atom_site_fract_x
_atom_site_fract_y
_atom_site_fract_z
_atom_site_charge
  Ge     Ge        0.351599999999962    0.244500000000016    0.893900000000031  0.0000
  Ge     Ge        0.111330738892277    0.740839947776063    0.101261144136995  0.0000
  Ge     Ge        0.686111804129758    0.397481401131938    0.666270752740189  0.0000
  Ge     Ge        0.681881264684838    0.609269996389910    0.656703319303107  0.0000
  Si     Si        0.648330909707713    0.244786806954563    0.097848870641272  0.0000
  Si     Si        0.606727375703765    0.759998622847836    0.094459529678251  0.0000
  Si     Si        0.315185719217868    0.755279990544865    0.885628261160056  0.0000
  Si     Si        0.813124567124452    0.754384692947428    0.891640760259011  0.0000
  Si     Si        0.148264661716039    0.251405705239606    0.110630778361644  0.0000
  Si     Si        0.856873254461367    0.258746482639034    0.896847887139538  0.0000
  Si     Si        0.286955275654927    0.395632739584892    0.336019227536045  0.0000
  Si     Si        0.278195754309754    0.597199666755093    0.325099547677250  0.0000
  Si     Si        0.778899738439873    0.897817980840899    0.326406045746658  0.0000
  Si     Si        0.172973480721526    0.899860880109977    0.668308775777092  0.0000
  Si     Si        0.179631711167778    0.101999751167376    0.664810713542912  0.0000
  Si     Si        0.782741509392815    0.102007404404652    0.328625216264740  0.0000
  Si     Si        0.385563888669576    0.401361666707029    0.690317059757127  0.0000
  Si     Si        0.583525572469930    0.398494717183780    0.303139667390508  0.0000
  Si     Si        0.576103467487607    0.601019590237511    0.295010454671309  0.0000
  Si     Si        0.382372908786146    0.606836823301030    0.678079970039400  0.0000
  Si     Si        0.874606801748856    0.901855815793701    0.683836339505774  0.0000
  Si     Si        0.079322650765270    0.898229114369023    0.309749857373679  0.0000
  Si     Si        0.081120253780633    0.099205885309527    0.308475149660383  0.0000
  Si     Si        0.880460990006143    0.105369828038451    0.683286767908872  0.0000
  O3     O3        0.519794671814354    0.220406577116545    0.963394646850150  0.0000
  O2     O2        0.449283242353316    0.778695088330077    0.019026401094973  0.0000
  O3     O3        0.939949309487744    0.733695766905830    0.030689024090659  0.0000
  O2     O2        0.014698565654309    0.272292767337224    0.977494289941391  0.0000
  O3     O3        0.296263921134159    0.163495557423595    0.757463688306047  0.0000
  O2     O2        0.674105465063598    0.166644182158602    0.223970661615246  0.0000
  O2     O2        0.663253272628408    0.835963236900774    0.221970019144641  0.0000
  O2     O2        0.287591611356568    0.836405967038243    0.765902353539901  0.0000
  O3     O3        0.801542924274663    0.680039528463475    0.761918727878844  0.0000
  O3     O3        0.159400362557212    0.652397334282615    0.221368100658063  0.0000
  O2     O2        0.173992096640774    0.330327264356146    0.236770328050176  0.0000
  O3     O3        0.815206453890748    0.335443013988758    0.774253943205404  0.0000
  O3     O3        0.325459593859147    0.347238951735514    0.808716066844496  0.0000
  O2     O2        0.623334376156925    0.336809073900189    0.176550076057765  0.0000
  O2     O2        0.621913194308371    0.664302091638516    0.174227140670390  0.0000
  O2     O2        0.325055355190316    0.663810972015964    0.797853557869971  0.0000
  O2     O2        0.821437099573034    0.847868330536937    0.808998676542298  0.0000
  O3     O3        0.145659473793702    0.837373198527159    0.206965201119254  0.0000
  O2     O2        0.134849814097486    0.159291179962797    0.192025326155869  0.0000
  O2     O2        0.828657470781558    0.165927802961909    0.803042865892304  0.0000
  O3     O3        0.275317671928005    0.242441519206300    0.041859022409457  0.0000
  O2     O2        0.775549582253877    0.259636760495284    0.027420919019251  0.0000
  O2     O2        0.682277961543744    0.757818454196235    0.959061935776247  0.0000
  O3     O3        0.189034692156621    0.742137001102380    0.954980202778038  0.0000
  O2     O2        0.433261418736000    0.372729216092980    0.312329582427386  0.0000
  O3     O3        0.534709343056347    0.365376618950056    0.699516604401527  0.0000
  O3     O3        0.527762508498144    0.642700520395387    0.679540130810795  0.0000
  O2     O2        0.422515984224776    0.624255971354449    0.296475041425018  0.0000
  O2     O2        0.920398786608711    0.876516065861456    0.287280137991017  0.0000
  O2     O2        0.031166788831465    0.878558897377958    0.706847000620259  0.0000
  O2     O2        0.037782114529595    0.126696124917227    0.701234959865290  0.0000
  O2     O2        0.925412321028707    0.120718596491894    0.292796391897094  0.0000
  O2     O2        0.291657451801469    0.385995369818488    0.516439758740910  0.0000
  O3     O3        0.682135842462249    0.387761655974830    0.471553775165450  0.0000
  O3     O3        0.675684039356556    0.615010291643887    0.462196475373982  0.0000
  O2     O2        0.283764914186764    0.613203704913005    0.505523387399181  0.0000
  O2     O2        0.791431836524144    0.879037133701320    0.507762616674326  0.0000
  O2     O2        0.158526708918260    0.883158431813167    0.487772944498623  0.0000
  O2     O2        0.167667787430445    0.115555015839015    0.483294037136241  0.0000
  O2     O2        0.793896413714031    0.124461253548906    0.508250181895092  0.0000
  O2     O2        0.247570996663147    0.494791038158745    0.281289027372014  0.0000
  O1     O1        0.719968445795138    0.504846586585281    0.719585139833498  0.0000
  O2     O2        0.739729193796020    0.000098300642359    0.291815801279499  0.0000
  O2     O2        0.214745601330706    0.000722027601459    0.711673121756080  0.0000
  O2     O2        0.394719657602950    0.505025243968654    0.731630696463803  0.0000
  O2     O2        0.585744280295574    0.499206134069146    0.244959259328419  0.0000
  O2     O2        0.858948732724935    0.004155711037001    0.721634813609605  0.0000
  O2     O2        0.095593086877006    0.998469896588861    0.260303680244286  0.0000
