data_c00439.vasp
_audit_creation_method             Generated by GULP
_audit_author_name                 Salvador R. G. Balestra
_symmetry_space_group_name_H-M     'P 1             '
_symmetry_Int_Tables_number        1

loop_
_symmetry_equiv_pos_site_id
_symmetry_equiv_pos_as_xyz
_cell_length_a                       10.2594
_cell_length_b                       15.2236
_cell_length_c                        8.9456
_cell_angle_alpha                   89.4448
_cell_angle_beta                   105.2056
_cell_angle_gamma                   90.0592

loop_
_atom_site_label
_atom_site_type_symbol
_atom_site_fract_x
_atom_site_fract_y
_atom_site_fract_z
_atom_site_charge
  Ge     Ge        0.351599999999962    0.244500000000016    0.893900000000031  0.0000
  Ge     Ge        0.175192143953056    0.753793595841909    0.090710607947217  0.0000
  Ge     Ge        0.616379010870902    0.405677650947892    0.296295405901433  0.0000
  Ge     Ge        0.410459614995818    0.603883938850672    0.683499441490905  0.0000
  Si     Si        0.653068721315023    0.247104443054523    0.099947886353836  0.0000
  Si     Si        0.678527850574493    0.763213530163825    0.090544979048108  0.0000
  Si     Si        0.384303723572306    0.763263390604557    0.886927520042303  0.0000
  Si     Si        0.876642408078271    0.744521665358862    0.877729807178968  0.0000
  Si     Si        0.141124367820848    0.265073972339029    0.099199520132606  0.0000
  Si     Si        0.849347524748941    0.254613172933064    0.888299135066245  0.0000
  Si     Si        0.313558651056562    0.403315000251736    0.315050909713208  0.0000
  Si     Si        0.711656689882068    0.400431141506905    0.658873858845389  0.0000
  Si     Si        0.712627235674800    0.603874491061782    0.659595538126440  0.0000
  Si     Si        0.313376974566457    0.606794283258644    0.321756248158057  0.0000
  Si     Si        0.814786972356367    0.908027822230224    0.315422590184317  0.0000
  Si     Si        0.209500859869022    0.896798319317052    0.653376665945463  0.0000
  Si     Si        0.215840948300585    0.099779192061328    0.666761839701070  0.0000
  Si     Si        0.818058904520014    0.108883443494999    0.329785218760611  0.0000
  Si     Si        0.409979635588972    0.398599261540590    0.673027784054684  0.0000
  Si     Si        0.612716820799084    0.611790912354866    0.302253259932492  0.0000
  Si     Si        0.910619478105293    0.900271637121470    0.673370013181485  0.0000
  Si     Si        0.115151006611843    0.908246986409439    0.298170387388945  0.0000
  Si     Si        0.118100466569944    0.110201424422371    0.312005694118617  0.0000
  Si     Si        0.917372205241023    0.102904078846459    0.686703828548975  0.0000
  O3     O3        0.494931000889076    0.229670824303900    0.039587930179744  0.0000
  O2     O2        0.544330840566663    0.780127148686170    0.953798713508264  0.0000
  O3     O3        0.034236515817579    0.730118407220939    0.947025420617728  0.0000
  O2     O2        0.981309612033872    0.276747750177116    0.024034332793098  0.0000
  O3     O3        0.333335864346642    0.153957254504935    0.775814838836248  0.0000
  O2     O2        0.706495743420283    0.175078516480856    0.234673026109904  0.0000
  O2     O2        0.704227116525966    0.846262032720343    0.205375657861721  0.0000
  O2     O2        0.326906182742753    0.834972234066356    0.751736821130518  0.0000
  O2     O2        0.830156744138376    0.663660219174016    0.762249600348786  0.0000
  O3     O3        0.197624027237868    0.666862822884515    0.218664526029516  0.0000
  O2     O2        0.190399484872123    0.347233039966192    0.212084220064273  0.0000
  O2     O2        0.821430924297514    0.336384409783911    0.768338542735963  0.0000
  O3     O3        0.355000598116937    0.336828582834473    0.784311897427072  0.0000
  O3     O3        0.678856975968052    0.343515604930876    0.171748007275677  0.0000
  O2     O2        0.666255114571341    0.676861464185683    0.190368509842276  0.0000
  O3     O3        0.355789034098708    0.667727603264239    0.811682984189017  0.0000
  O2     O2        0.850300909526222    0.836897099482326    0.782511737267809  0.0000
  O3     O3        0.163649653925681    0.853314045799357    0.175602100177848  0.0000
  O2     O2        0.172254928799763    0.175112291538234    0.200204851028094  0.0000
  O2     O2        0.865172111654647    0.164151558135404    0.802919399246178  0.0000
  O3     O3        0.213587144774146    0.260280945661057    0.964046223078030  0.0000
  O2     O2        0.723246529628099    0.239276408049596    0.960085151664818  0.0000
  O2     O2        0.802422061040726    0.747856603550335    0.015052265892451  0.0000
  O3     O3        0.315494574626569    0.770142670871568    0.024766590774025  0.0000
  O3     O3        0.451995263403826    0.372512851279349    0.281545505941712  0.0000
  O2     O2        0.563555592943183    0.374520805489934    0.674724316723323  0.0000
  O3     O3        0.573668803758511    0.634171520222393    0.690128322662150  0.0000
  O2     O2        0.459710697173887    0.636836528195992    0.301597546174378  0.0000
  O2     O2        0.957077057293148    0.890621171517316    0.278518472893573  0.0000
  O2     O2        0.068085552832431    0.876228889537651    0.694243298051617  0.0000
  O2     O2        0.075014703878156    0.122226265895198    0.707492098702898  0.0000
  O2     O2        0.959976189867811    0.128355904463511    0.291988110049990  0.0000
  O2     O2        0.319301782932725    0.391655411501509    0.496119019222210  0.0000
  O3     O3        0.715187983780661    0.390243430851190    0.482898497856163  0.0000
  O2     O2        0.706871741628776    0.616029745125082    0.477983198064429  0.0000
  O3     O3        0.310136197468825    0.617397766204919    0.497800614681250  0.0000
  O2     O2        0.827132477273203    0.886304247050774    0.495581232877380  0.0000
  O2     O2        0.196217011270392    0.880264469146614    0.472603026235247  0.0000
  O2     O2        0.201788199801878    0.126558809581242    0.488337657715553  0.0000
  O2     O2        0.832278322483559    0.123500648487368    0.511358734191758  0.0000
  O2     O2        0.289550026161716    0.505675871512157    0.269192347846057  0.0000
  O2     O2        0.742903222329937    0.501823420172863    0.708478079042620  0.0000
  O2     O2        0.771050199530848    0.009476954309994    0.282317447152551  0.0000
  O2     O2        0.249823640437936    0.997133805711174    0.694025993569009  0.0000
  O3     O3        0.404523955941360    0.495887208995730    0.736826564162830  0.0000
  O3     O3        0.618324604511836    0.514121891438606    0.240559087110340  0.0000
  O2     O2        0.897065059265088    0.000539198449766    0.724978124522384  0.0000
  O2     O2        0.140192632859687    0.010535790460265    0.266721308044558  0.0000
