data_c00410.vasp
_audit_creation_method             Generated by GULP
_audit_author_name                 Salvador R. G. Balestra
_symmetry_space_group_name_H-M     'P 1             '
_symmetry_Int_Tables_number        1

loop_
_symmetry_equiv_pos_site_id
_symmetry_equiv_pos_as_xyz
_cell_length_a                       10.2538
_cell_length_b                       15.2283
_cell_length_c                        8.9349
_cell_angle_alpha                   89.8445
_cell_angle_beta                   105.0346
_cell_angle_gamma                   90.0585

loop_
_atom_site_label
_atom_site_type_symbol
_atom_site_fract_x
_atom_site_fract_y
_atom_site_fract_z
_atom_site_charge
  Ge     Ge        0.351599999999962    0.244500000000016    0.893900000000031  0.0000
  Ge     Ge        0.103423682986291    0.747374960825176    0.096342937967651  0.0000
  Ge     Ge        0.681045399988831    0.404409886110988    0.664102904732446  0.0000
  Ge     Ge        0.879262480944146    0.110289400947412    0.690573077523471  0.0000
  Si     Si        0.649079105663645    0.257670616233594    0.097957797422008  0.0000
  Si     Si        0.602865956975998    0.768501526244963    0.096930951516834  0.0000
  Si     Si        0.312053850652747    0.759200077119763    0.884941660057102  0.0000
  Si     Si        0.803460119638337    0.754088199894930    0.886285271836756  0.0000
  Si     Si        0.147830792357211    0.258414147689043    0.108575679440442  0.0000
  Si     Si        0.855697087027986    0.267875169949425    0.899021775983825  0.0000
  Si     Si        0.281485700109264    0.404836593793595    0.330491454671084  0.0000
  Si     Si        0.673060781407975    0.609939605162436    0.659155139084878  0.0000
  Si     Si        0.272282150029377    0.606316528893288    0.327711804742511  0.0000
  Si     Si        0.772081124570922    0.908542933038580    0.320374252297875  0.0000
  Si     Si        0.166443994288141    0.900380345627470    0.659246510053906  0.0000
  Si     Si        0.182160059604823    0.104319810234347    0.668229276952620  0.0000
  Si     Si        0.777842703418355    0.111427750458137    0.330638107734369  0.0000
  Si     Si        0.375777717958446    0.403622076592663    0.687336733666532  0.0000
  Si     Si        0.579593733461101    0.408770815326685    0.301413765274561  0.0000
  Si     Si        0.570641431974704    0.610815108459561    0.302029355847663  0.0000
  Si     Si        0.375510152371232    0.606324780682864    0.683358797704897  0.0000
  Si     Si        0.869896679564906    0.903160168807797    0.679350506514284  0.0000
  Si     Si        0.072227508983069    0.906453970639751    0.302040572521569  0.0000
  Si     Si        0.080272046035472    0.107544914267356    0.314483015769264  0.0000
  O3     O3        0.523287642868173    0.231478917452983    0.961080094256813  0.0000
  O2     O2        0.444618147110967    0.784397660895185    0.018971689278540  0.0000
  O3     O3        0.934088138612441    0.730754381868047    0.019285282781875  0.0000
  O2     O2        0.016007916763705    0.278796105833828    0.971028384667301  0.0000
  O3     O3        0.306425756178223    0.157158599062543    0.769502465770359  0.0000
  O2     O2        0.674971796793112    0.178225399401021    0.221557430375116  0.0000
  O2     O2        0.655514847922014    0.848320342712913    0.215379742909581  0.0000
  O2     O2        0.282934984263641    0.837807867355626    0.758755480328196  0.0000
  O2     O2        0.780170288701922    0.677818271073981    0.757739938349353  0.0000
  O3     O3        0.153658396459743    0.664874406075660    0.230615901012969  0.0000
  O2     O2        0.171348948187948    0.339837581711534    0.227637724868167  0.0000
  O3     O3        0.811392283142095    0.341543236805596    0.768513449244555  0.0000
  O3     O3        0.314172287757317    0.343508229590552    0.796834813670015  0.0000
  O2     O2        0.619313998860612    0.348807449337875    0.173783637623930  0.0000
  O2     O2        0.623828164671530    0.676486748485767    0.190451763463687  0.0000
  O2     O2        0.327601681874351    0.667234645948404    0.803581837882870  0.0000
  O2     O2        0.815023561923578    0.844701235951783    0.798415845601182  0.0000
  O3     O3        0.129610135130080    0.847936383495926    0.188465239800942  0.0000
  O2     O2        0.128562344405807    0.168929582233494    0.195296311675859  0.0000
  O3     O3        0.823238719801069    0.173273319343096    0.819581073535324  0.0000
  O3     O3        0.276052086932458    0.243391106983152    0.043347977330764  0.0000
  O2     O2        0.778682414524831    0.276654461519058    0.033376361962663  0.0000
  O2     O2        0.678478864531277    0.763899022825173    0.962097917429839  0.0000
  O3     O3        0.185823508569541    0.746015007441349    0.954072582870478  0.0000
  O2     O2        0.427141825384295    0.385168435936756    0.302984125330948  0.0000
  O3     O3        0.530647844649459    0.376121869362682    0.703169101748542  0.0000
  O2     O2        0.528412843904128    0.629930566603616    0.689427405315520  0.0000
  O2     O2        0.413972561143512    0.632051648543037    0.290486718265507  0.0000
  O2     O2        0.914210766743105    0.884439350111491    0.284747943613610  0.0000
  O2     O2        0.023912712892094    0.874911102374285    0.692047645523089  0.0000
  O3     O3        0.044979847505440    0.138146916083253    0.703531121959164  0.0000
  O2     O2        0.928208047155446    0.130509705188722    0.315587119371436  0.0000
  O2     O2        0.289349170613905    0.389129071263192    0.510319739155498  0.0000
  O3     O3        0.674792795203790    0.391086767583704    0.470110749254948  0.0000
  O2     O2        0.661672732796119    0.623009234660501    0.476810760711550  0.0000
  O2     O2        0.283067851819715    0.620577668513716    0.509552900964109  0.0000
  O2     O2        0.781522609084436    0.892114405134464    0.501744192953280  0.0000
  O2     O2        0.157153348443259    0.887745226234126    0.478294275238840  0.0000
  O2     O2        0.175371900794276    0.119601946437102    0.487046341737266  0.0000
  O3     O3        0.776747198808675    0.127764763010192    0.506060395604716  0.0000
  O2     O2        0.238359231718094    0.504640722386933    0.283311724100932  0.0000
  O3     O3        0.719341567847635    0.512638911778036    0.711190898602246  0.0000
  O2     O2        0.736132222294425    0.010777262580055    0.281523932897650  0.0000
  O2     O2        0.200210513528065    0.000902693978593    0.708318045213544  0.0000
  O2     O2        0.367483835024700    0.505302211985586    0.734329967979042  0.0000
  O2     O2        0.587217411160817    0.510641244873925    0.251099648426743  0.0000
  O3     O3        0.865104180180336    0.001761919893347    0.735427333909556  0.0000
  O2     O2        0.088032103600035    0.007837913171257    0.258446862128524  0.0000
