data_c00470.vasp
_audit_creation_method             Generated by GULP
_audit_author_name                 Salvador R. G. Balestra
_symmetry_space_group_name_H-M     'P 1             '
_symmetry_Int_Tables_number        1

loop_
_symmetry_equiv_pos_site_id
_symmetry_equiv_pos_as_xyz
_cell_length_a                       10.2762
_cell_length_b                       15.2001
_cell_length_c                        8.9583
_cell_angle_alpha                   89.9146
_cell_angle_beta                   105.2339
_cell_angle_gamma                   89.5943

loop_
_atom_site_label
_atom_site_type_symbol
_atom_site_fract_x
_atom_site_fract_y
_atom_site_fract_z
_atom_site_charge
  Ge     Ge        0.351599999999962    0.244500000000016    0.893900000000031  0.0000
  Ge     Ge        0.141688592005496    0.262491049904549    0.109612475752101  0.0000
  Ge     Ge        0.715260803029671    0.402623110374020    0.663883565757875  0.0000
  Ge     Ge        0.408496580037336    0.605797684610454    0.686182282918256  0.0000
  Si     Si        0.648841669533068    0.248024514116986    0.103155558014615  0.0000
  Si     Si        0.650173584544665    0.766843191278455    0.103245007384487  0.0000
  Si     Si        0.355117592065827    0.758133426230265    0.899564065390932  0.0000
  Si     Si        0.850790353794732    0.752267410195778    0.889983261056546  0.0000
  Si     Si        0.145884709355022    0.747464696202619    0.099677717709378  0.0000
  Si     Si        0.847440170237533    0.253749802673358    0.895961635753054  0.0000
  Si     Si        0.317698060968856    0.406284257484796    0.325128602414555  0.0000
  Si     Si        0.717620719210355    0.605167393750448    0.666166567317654  0.0000
  Si     Si        0.314548653156800    0.612239411883678    0.328993675198860  0.0000
  Si     Si        0.810507713399336    0.907085972413487    0.328257067251976  0.0000
  Si     Si        0.205867258804083    0.894317420128889    0.665042228412523  0.0000
  Si     Si        0.217488715362317    0.095746057787196    0.675093843231843  0.0000
  Si     Si        0.822832159820333    0.110550390522217    0.335059913377379  0.0000
  Si     Si        0.411129428149301    0.401365401732864    0.682151721394519  0.0000
  Si     Si        0.609688357152800    0.406842457793403    0.294706685827763  0.0000
  Si     Si        0.612296367804713    0.610117226303231    0.306683342177796  0.0000
  Si     Si        0.907953560158935    0.901379289402767    0.682295372404531  0.0000
  Si     Si        0.109499068674539    0.900822441997620    0.309683415173774  0.0000
  Si     Si        0.121477773952124    0.101538129641942    0.316203852267256  0.0000
  Si     Si        0.919661191895181    0.105095455548018    0.691509209075185  0.0000
  O3     O3        0.492710202407672    0.226214225763397    0.043107762361064  0.0000
  O2     O2        0.494998083345507    0.785507924524698    0.017642052353204  0.0000
  O2     O2        0.991754884727778    0.730162710072173    0.011152235773604  0.0000
  O3     O3        0.969655806891254    0.274637917998231    0.041120918022933  0.0000
  O3     O3        0.335535076292015    0.153615064511463    0.773944102908246  0.0000
  O2     O2        0.712845217397564    0.176103756038805    0.233815847098377  0.0000
  O2     O2        0.695868228889299    0.848015982913305    0.219675037843346  0.0000
  O2     O2        0.320668069607132    0.828589760331846    0.759208669539596  0.0000
  O2     O2        0.822217719731498    0.675131242696752    0.763674765066027  0.0000
  O2     O2        0.194066579497753    0.664753086354215    0.212656551449623  0.0000
  O3     O3        0.194130932667488    0.352040967284392    0.227584368643919  0.0000
  O3     O3        0.831489780897944    0.328712091338399    0.766746212568748  0.0000
  O3     O3        0.354209299776272    0.338496887274608    0.789676375595304  0.0000
  O2     O2        0.666152717283593    0.345887373514500    0.178345132862076  0.0000
  O2     O2        0.668797069406493    0.674863031639986    0.197265354313160  0.0000
  O3     O3        0.364465191995738    0.662962741779580    0.829849737597196  0.0000
  O2     O2        0.852591306317096    0.844614547629293    0.802415504912352  0.0000
  O2     O2        0.161892519931309    0.837378503320557    0.196424769625371  0.0000
  O3     O3        0.182980333884122    0.165404230115550    0.214225573492954  0.0000
  O2     O2        0.868321702754838    0.161361467064038    0.815643422896323  0.0000
  O1     O1        0.212025887082362    0.257801553531670    0.959777182523264  0.0000
  O2     O2        0.713687574581849    0.246139574768021    0.958000235489602  0.0000
  O2     O2        0.734385939390811    0.759813611120206    0.977333235430355  0.0000
  O2     O2        0.234846589167179    0.758784112764614    0.980696470046028  0.0000
  O2     O2        0.448213605042285    0.391365199985874    0.258050892904112  0.0000
  O3     O3        0.572532761583894    0.396449340867883    0.728460949016436  0.0000
  O3     O3        0.580098807388521    0.610029915163235    0.716780364094462  0.0000
  O2     O2        0.453167830852468    0.628149990365220    0.280055401758660  0.0000
  O2     O2        0.952410869552981    0.882940333140294    0.293959098941259  0.0000
  O2     O2        0.061718480999338    0.872798870170224    0.695727830812330  0.0000
  O2     O2        0.077133156761124    0.124800758655580    0.712582652406301  0.0000
  O2     O2        0.965127762557785    0.128243567327669    0.297674099402639  0.0000
  O2     O2        0.357047035623422    0.373451214250703    0.502173236833923  0.0000
  O3     O3        0.682011178376123    0.380480684048851    0.468984368813000  0.0000
  O2     O2        0.689128260742648    0.628270960154609    0.484050620519536  0.0000
  O3     O3        0.330770773313763    0.644235423392314    0.502289007720711  0.0000
  O2     O2        0.818205332233045    0.886258038659100    0.507172105639506  0.0000
  O2     O2        0.196342232446579    0.882260634655340    0.484264528069280  0.0000
  O2     O2        0.204287934457215    0.110539070848264    0.494210115503334  0.0000
  O2     O2        0.835800932129374    0.128485432370384    0.516267889767013  0.0000
  O2     O2        0.279186715545357    0.509207183890792    0.318305480556916  0.0000
  O3     O3        0.779209603972958    0.507960815631202    0.694340914954276  0.0000
  O2     O2        0.776629922521113    0.010109996471289    0.293913046184990  0.0000
  O2     O2        0.247658660472565    0.993368549954952    0.717766059989783  0.0000
  O3     O3        0.360755434506400    0.499167290000802    0.703523297599209  0.0000
  O2     O2        0.637528229924027    0.509198943729262    0.263648013904171  0.0000
  O2     O2        0.899395658790913    0.003136855862363    0.727293057819245  0.0000
  O2     O2        0.129709687050164    0.000895150018173    0.261707074217197  0.0000
