data_c00400.vasp
_audit_creation_method             Generated by GULP
_audit_author_name                 Salvador R. G. Balestra
_symmetry_space_group_name_H-M     'P 1             '
_symmetry_Int_Tables_number        1

loop_
_symmetry_equiv_pos_site_id
_symmetry_equiv_pos_as_xyz
_cell_length_a                       10.2828
_cell_length_b                       15.2238
_cell_length_c                        8.9313
_cell_angle_alpha                   89.8293
_cell_angle_beta                   104.9800
_cell_angle_gamma                   90.1227

loop_
_atom_site_label
_atom_site_type_symbol
_atom_site_fract_x
_atom_site_fract_y
_atom_site_fract_z
_atom_site_charge
  Ge     Ge        0.351599999999962    0.244500000000016    0.893900000000031  0.0000
  Ge     Ge        0.128679119632144    0.743008322865598    0.093879155621421  0.0000
  Ge     Ge        0.712614083783996    0.405591463196115    0.665039517207287  0.0000
  Ge     Ge        0.796632888115858    0.906545790139885    0.323150022982041  0.0000
  Si     Si        0.650422049239629    0.252821409477431    0.102669700354447  0.0000
  Si     Si        0.623733044358876    0.767250316176651    0.092885270202093  0.0000
  Si     Si        0.333240342910321    0.753325052716204    0.879242445062428  0.0000
  Si     Si        0.831268867348363    0.755340626033033    0.890141431556106  0.0000
  Si     Si        0.145383336925283    0.258983965539878    0.106418357269600  0.0000
  Si     Si        0.855598602914429    0.260420733708353    0.897131178332818  0.0000
  Si     Si        0.314407045261382    0.400219463228294    0.327082426132764  0.0000
  Si     Si        0.700446303441963    0.611257924286469    0.658776758009278  0.0000
  Si     Si        0.301689132333678    0.603375801661187    0.323667552301305  0.0000
  Si     Si        0.195750796278432    0.898342559644277    0.656654703980850  0.0000
  Si     Si        0.211389724819711    0.099120864182467    0.667139568960884  0.0000
  Si     Si        0.812884894880339    0.113956314397158    0.334702860277986  0.0000
  Si     Si        0.407164485442421    0.400035962249578    0.683354851560734  0.0000
  Si     Si        0.611213784647139    0.408563461461579    0.300317903725717  0.0000
  Si     Si        0.598382081888921    0.610700560056478    0.300404915236399  0.0000
  Si     Si        0.401916998796733    0.603056937571349    0.678727985039132  0.0000
  Si     Si        0.899164628950747    0.905039658481832    0.685911502735157  0.0000
  Si     Si        0.100129871819799    0.902427101021094    0.298339503456323  0.0000
  Si     Si        0.109692246086100    0.104117442284264    0.310762067192388  0.0000
  Si     Si        0.914281996704814    0.108170302238326    0.690992671681157  0.0000
  O3     O3        0.497945248265862    0.224721564912863    0.031637900093369  0.0000
  O2     O2        0.465616011610299    0.777346592070212    0.012641524748913  0.0000
  O3     O3        0.958825973530610    0.725534381080834    0.021856181568466  0.0000
  O2     O2        0.987550965169049    0.277737882936191    0.035225115637639  0.0000
  O3     O3        0.329508885421531    0.158157507797802    0.764420108292588  0.0000
  O2     O2        0.709042904744905    0.184452340480819    0.240052257096834  0.0000
  O3     O3        0.666112595169350    0.846904710242966    0.210639396537670  0.0000
  O2     O2        0.306524813853419    0.831643802876338    0.752893423834178  0.0000
  O2     O2        0.802535794759295    0.683483914858636    0.753137626026537  0.0000
  O3     O3        0.180592196616463    0.658722924230700    0.224221303388795  0.0000
  O2     O2        0.201993041539363    0.338802307170716    0.221739097830919  0.0000
  O3     O3        0.835960332224264    0.338886879140549    0.774122029465408  0.0000
  O3     O3        0.350192126734218    0.343301240669456    0.800062562475627  0.0000
  O2     O2        0.659038459605402    0.350986085445167    0.173908944593312  0.0000
  O2     O2        0.652535907445707    0.675496548914146    0.188316009731637  0.0000
  O2     O2        0.349467551594273    0.661406348601486    0.798600436103411  0.0000
  O2     O2        0.858152157308833    0.849116961065047    0.818895854963415  0.0000
  O3     O3        0.160183859980759    0.843006576968800    0.187371657481730  0.0000
  O2     O2        0.169180015239375    0.167416145895854    0.201450064307245  0.0000
  O2     O2        0.865232800380447    0.168408007863096    0.811743448209636  0.0000
  O3     O3        0.215625192880356    0.251309075881595    0.969725958738121  0.0000
  O2     O2        0.727448776796061    0.253465666327638    0.968089154087723  0.0000
  O2     O2        0.704923931589970    0.767215196000659    0.962246373066072  0.0000
  O3     O3        0.206034197173630    0.741740157301365    0.946724410202067  0.0000
  O2     O2        0.458554007664601    0.380146872716138    0.295405487358649  0.0000
  O3     O3        0.562029252379169    0.376455289750741    0.700990914924824  0.0000
  O2     O2        0.555918706194801    0.626797826292658    0.691437515466679  0.0000
  O2     O2        0.441723822885860    0.631960552754184    0.285867097046742  0.0000
  O3     O3        0.944924602609123    0.876992387256036    0.281171307354801  0.0000
  O2     O2        0.050921956708843    0.878754688663150    0.686485983390751  0.0000
  O2     O2        0.070774184407917    0.127144712411582    0.703294808075763  0.0000
  O2     O2        0.957068079070557    0.131035990236817    0.301047426715253  0.0000
  O2     O2        0.322815604163586    0.381543059942026    0.506516581119554  0.0000
  O3     O3        0.704724201611005    0.393212523270668    0.470538601090824  0.0000
  O2     O2        0.687227349530207    0.624358556841182    0.475904284471418  0.0000
  O2     O2        0.312524769588669    0.620096588516756    0.504741792412246  0.0000
  O3     O3        0.804425667613448    0.887998005315697    0.516673264790641  0.0000
  O2     O2        0.185002058566801    0.886577163529215    0.475444067416463  0.0000
  O2     O2        0.200548496021000    0.113185984453297    0.485510697049093  0.0000
  O2     O2        0.825179000684344    0.127949612367737    0.517198244876604  0.0000
  O2     O2        0.274066140195026    0.500771296329736    0.284628050973003  0.0000
  O3     O3        0.752000557781452    0.514397571296134    0.710682704479211  0.0000
  O3     O3        0.763668824665651    0.016572849000450    0.285044738744954  0.0000
  O2     O2        0.241857453093061    0.996977729956820    0.710366278469549  0.0000
  O2     O2        0.392234912875413    0.501840875926217    0.724734672139363  0.0000
  O2     O2        0.615149692374571    0.510556037985564    0.250744648870023  0.0000
  O2     O2        0.892996305107733    0.007083156674837    0.732075849289842  0.0000
  O2     O2        0.111910065635523    0.004295154273336    0.252676667721129  0.0000
