data_c00431.vasp
_audit_creation_method             Generated by GULP
_audit_author_name                 Salvador R. G. Balestra
_symmetry_space_group_name_H-M     'P 1             '
_symmetry_Int_Tables_number        1

loop_
_symmetry_equiv_pos_site_id
_symmetry_equiv_pos_as_xyz
_cell_length_a                       10.2678
_cell_length_b                       15.2208
_cell_length_c                        8.9686
_cell_angle_alpha                   89.6056
_cell_angle_beta                   105.3658
_cell_angle_gamma                   89.6550

loop_
_atom_site_label
_atom_site_type_symbol
_atom_site_fract_x
_atom_site_fract_y
_atom_site_fract_z
_atom_site_charge
  Ge     Ge        0.351599999999962    0.244500000000016    0.893900000000031  0.0000
  Ge     Ge        0.140324914052461    0.756413171630923    0.088630615868193  0.0000
  Ge     Ge        0.381431160685170    0.405762828841061    0.679173837216909  0.0000
  Ge     Ge        0.590268154365526    0.411376599622787    0.296519234710349  0.0000
  Si     Si        0.656576912838661    0.258112090331976    0.090853556584590  0.0000
  Si     Si        0.642818127265604    0.770058202507802    0.090618041075864  0.0000
  Si     Si        0.350510013693178    0.767874969726414    0.882050521418142  0.0000
  Si     Si        0.840127357850387    0.751906159959041    0.878240556581185  0.0000
  Si     Si        0.146812179966834    0.262817085857168    0.099846186998404  0.0000
  Si     Si        0.857693079694350    0.265620273365237    0.884238378729386  0.0000
  Si     Si        0.287207751431823    0.408051656230261    0.311701911122943  0.0000
  Si     Si        0.686157026980108    0.406028912770798    0.663305379899686  0.0000
  Si     Si        0.678197200820261    0.609350394224087    0.657477993933259  0.0000
  Si     Si        0.282747605794947    0.611174942590020    0.322255962721854  0.0000
  Si     Si        0.779246975883655    0.914290537025895    0.314186627342334  0.0000
  Si     Si        0.173208274572452    0.902004585476054    0.651580344946566  0.0000
  Si     Si        0.182140798860977    0.106244662465166    0.662858150651090  0.0000
  Si     Si        0.782760951095282    0.114280145201229    0.325634385325236  0.0000
  Si     Si        0.583075005538803    0.617400076886805    0.301592857994260  0.0000
  Si     Si        0.378494382148459    0.610109046273395    0.678891075795192  0.0000
  Si     Si        0.876143802190642    0.906721049699369    0.672383497770914  0.0000
  Si     Si        0.080330904778085    0.910988665139354    0.297719401578761  0.0000
  Si     Si        0.084382628921801    0.113140760495862    0.311199977641549  0.0000
  Si     Si        0.883320806648786    0.109296757491012    0.681027706159702  0.0000
  O3     O3        0.524331804441887    0.235045055863012    0.959926684028685  0.0000
  O2     O2        0.508152281295988    0.788170465518876    0.955156605611013  0.0000
  O3     O3        0.996995081746784    0.733419026641036    0.947792190892142  0.0000
  O2     O2        0.017044847280310    0.279924860483455    0.956392200121111  0.0000
  O3     O3        0.303236569636586    0.156426531055665    0.772556787136801  0.0000
  O2     O2        0.676748042969268    0.183947238524284    0.226383518465087  0.0000
  O2     O2        0.667776373900486    0.852140693913443    0.207421730912110  0.0000
  O2     O2        0.292019541440213    0.843887018556672    0.757190938403020  0.0000
  O2     O2        0.787653188428962    0.671347736756519    0.764705004343788  0.0000
  O3     O3        0.166223333618253    0.672210520613508    0.223139682268858  0.0000
  O2     O2        0.167779194411301    0.348451109934518    0.208744374636874  0.0000
  O2     O2        0.807052363812732    0.346664445541939    0.767126955719770  0.0000
  O1     O1        0.312589540450738    0.340322305996214    0.790522652988835  0.0000
  O3     O3        0.648123095379748    0.352139257238406    0.165761004172094  0.0000
  O2     O2        0.631749711352159    0.682835801939706    0.187584124309774  0.0000
  O2     O2        0.330415364611008    0.675227179563196    0.793416728038487  0.0000
  O2     O2        0.816378980582236    0.843937089461278    0.782039671343157  0.0000
  O3     O3        0.128625568700439    0.856060660070540    0.173966231212466  0.0000
  O2     O2        0.130858020906188    0.175557043099162    0.193466950838611  0.0000
  O2     O2        0.830111163414920    0.173146121594441    0.793737877399243  0.0000
  O3     O3        0.278680653918737    0.244086770981204    0.043830280498070  0.0000
  O2     O2        0.784795107524069    0.260644588600937    0.020490162785846  0.0000
  O2     O2        0.767234454640704    0.757733123199064    0.015515375921900  0.0000
  O3     O3        0.278515795191631    0.764980101848899    0.017305858696269  0.0000
  O3     O3        0.418008880801799    0.397315370898987    0.248166561077341  0.0000
  O3     O3        0.555067422971360    0.391908660207853    0.724621163739998  0.0000
  O2     O2        0.539886199632418    0.615814185476477    0.708030212221632  0.0000
  O2     O2        0.421299042826652    0.624749508491141    0.271627877355710  0.0000
  O2     O2        0.921427143101980    0.896118609562008    0.276949068646951  0.0000
  O2     O2        0.032889261817377    0.880737810482803    0.693432110281087  0.0000
  O2     O2        0.040587760978387    0.130284854821096    0.700541661516282  0.0000
  O2     O2        0.927300670350794    0.129886370354066    0.294720508441805  0.0000
  O3     O3        0.320077631334388    0.377816266107861    0.488065283049715  0.0000
  O3     O3        0.658872831999309    0.379178894003982    0.485407392387401  0.0000
  O2     O2        0.655247609659733    0.640225436880477    0.480111678619755  0.0000
  O2     O2        0.306191821717386    0.635827589804830    0.501711029821003  0.0000
  O2     O2        0.792494824516883    0.894301969808867    0.494633481518387  0.0000
  O2     O2        0.159957098191545    0.881848038220783    0.472116940411091  0.0000
  O2     O2        0.170636365600431    0.133276693979822    0.485283321783198  0.0000
  O2     O2        0.794789774522334    0.128329316751274    0.506538771551676  0.0000
  O2     O2        0.239075758938752    0.509696696539515    0.298615589684667  0.0000
  O2     O2        0.729591217986306    0.508578882642054    0.676900032959151  0.0000
  O2     O2        0.732941769753327    0.015463028417055    0.277348684049791  0.0000
  O2     O2        0.210568867218216    0.002805557208958    0.686977629865835  0.0000
  O3     O3        0.340167640438479    0.512422249931178    0.713391443099998  0.0000
  O3     O3        0.624964157223114    0.520005171299587    0.268580025069762  0.0000
  O2     O2        0.865195154546632    0.007560843728721    0.723953184636455  0.0000
  O2     O2        0.108798046081282    0.012868826835054    0.269669011526974  0.0000
