data_c00474.vasp
_audit_creation_method             Generated by GULP
_audit_author_name                 Salvador R. G. Balestra
_symmetry_space_group_name_H-M     'P 1             '
_symmetry_Int_Tables_number        1

loop_
_symmetry_equiv_pos_site_id
_symmetry_equiv_pos_as_xyz
_cell_length_a                       10.2769
_cell_length_b                       15.2181
_cell_length_c                        8.9539
_cell_angle_alpha                   89.7785
_cell_angle_beta                   105.1247
_cell_angle_gamma                   89.5273

loop_
_atom_site_label
_atom_site_type_symbol
_atom_site_fract_x
_atom_site_fract_y
_atom_site_fract_z
_atom_site_charge
  Ge     Ge        0.351599999999962    0.244500000000016    0.893900000000031  0.0000
  Ge     Ge        0.144646461940748    0.262130206934410    0.112504444458588  0.0000
  Ge     Ge        0.717038632809186    0.394776255732991    0.669888246606327  0.0000
  Ge     Ge        0.923196925981561    0.101619992532363    0.698144343908246  0.0000
  Si     Si        0.647556790360476    0.245410516582913    0.106658105892414  0.0000
  Si     Si        0.666634013640452    0.759992284325217    0.109128198447675  0.0000
  Si     Si        0.371579082695627    0.755507533983068    0.898273454181968  0.0000
  Si     Si        0.869592811563655    0.742495836651782    0.896864370198008  0.0000
  Si     Si        0.164871612370619    0.746005041372431    0.106116137000752  0.0000
  Si     Si        0.850661660103643    0.250988314739554    0.906686990775049  0.0000
  Si     Si        0.319219263624928    0.406594475728466    0.331858497683079  0.0000
  Si     Si        0.722712241346205    0.599934336944819    0.675180738512860  0.0000
  Si     Si        0.326249017274641    0.609585289320380    0.339193576975946  0.0000
  Si     Si        0.820637875457945    0.902152415870061    0.331081190488368  0.0000
  Si     Si        0.216164135235660    0.893121110943920    0.666385748825837  0.0000
  Si     Si        0.225293663072948    0.095924168664689    0.674908718690054  0.0000
  Si     Si        0.823407900015045    0.106316401910809    0.336309250052360  0.0000
  Si     Si        0.413574269896133    0.400199008357194    0.688433333656070  0.0000
  Si     Si        0.616897783579628    0.403437810390170    0.305911330831441  0.0000
  Si     Si        0.623456446922708    0.605329078796756    0.317186026125317  0.0000
  Si     Si        0.423544477831198    0.604048994267068    0.692614501122773  0.0000
  Si     Si        0.918452121089667    0.893932586757592    0.686255948495754  0.0000
  Si     Si        0.118928783478903    0.899222682821768    0.310650554564854  0.0000
  Si     Si        0.124343159963071    0.100143636785924    0.318030537950062  0.0000
  O3     O3        0.490914018612197    0.226191871250510    0.045703654184722  0.0000
  O2     O2        0.515198049985991    0.778560216341535    0.010529762956037  0.0000
  O2     O2        0.015638362319226    0.722861671214779    0.008963902112941  0.0000
  O3     O3        0.972686822084642    0.276366427404769    0.049447806281314  0.0000
  O3     O3        0.343236717565876    0.155817778688409    0.770976709626479  0.0000
  O2     O2        0.712955231111847    0.168828281817045    0.227124271992736  0.0000
  O2     O2        0.706687798000619    0.842413995796944    0.223543972865059  0.0000
  O2     O2        0.332975505704929    0.830818878640315    0.766952894441369  0.0000
  O2     O2        0.835440793064266    0.663190377112154    0.775452772025867  0.0000
  O2     O2        0.210364011097341    0.670877356830482    0.235883859879956  0.0000
  O3     O3        0.201244902805808    0.350958540915641    0.228359219070322  0.0000
  O3     O3        0.836287173047926    0.321483512188775    0.769060667977995  0.0000
  O3     O3        0.351845243813399    0.343795174145018    0.800656329052218  0.0000
  O2     O2        0.666835580971858    0.341172691291232    0.187388920900614  0.0000
  O2     O2        0.679840982326640    0.669935442921209    0.207821991702444  0.0000
  O2     O2        0.373916005346924    0.661877635478090    0.816233169050149  0.0000
  O2     O2        0.864105153361473    0.832243142048689    0.801018439745637  0.0000
  O2     O2        0.170211432375911    0.839574515213188    0.190635162327548  0.0000
  O3     O3        0.183547397740238    0.164020817998622    0.214089545739197  0.0000
  O3     O3        0.872589141048877    0.156108340792536    0.840166208594445  0.0000
  O1     O1        0.210772624104073    0.253995799854754    0.959121676419945  0.0000
  O2     O2        0.713506743382716    0.249743488006660    0.962785294467550  0.0000
  O2     O2        0.762207483874894    0.750529603651357    0.996129813041747  0.0000
  O2     O2        0.261850482700779    0.750457116937989    0.994317648529237  0.0000
  O2     O2        0.461327106423076    0.380978965417237    0.296921905237359  0.0000
  O3     O3        0.565475683190803    0.369000463371700    0.705029063006843  0.0000
  O2     O2        0.578602644552569    0.624992103319373    0.704014263347934  0.0000
  O2     O2        0.469494289238005    0.632334824285731    0.307226428500685  0.0000
  O2     O2        0.963534870779124    0.877980560605646    0.298677187301393  0.0000
  O2     O2        0.073122587333648    0.868084611006043    0.695694970797655  0.0000
  O3     O3        0.088041360577284    0.128076344240511    0.712654949282780  0.0000
  O2     O2        0.969525020595909    0.126304952024831    0.309271440824275  0.0000
  O2     O2        0.328399427405791    0.387315196746976    0.511023749319738  0.0000
  O3     O3        0.708440665509332    0.385321142517684    0.476112958637207  0.0000
  O2     O2        0.713977517509842    0.611921515396871    0.493135550966987  0.0000
  O2     O2        0.333605694446455    0.625314439746784    0.519336005475870  0.0000
  O2     O2        0.827952794796671    0.882793798787569    0.510211480073228  0.0000
  O2     O2        0.208973238912670    0.881722712465647    0.485217540943718  0.0000
  O2     O2        0.212897202631775    0.108805654590348    0.493608295119366  0.0000
  O3     O3        0.826445492082413    0.124501836802486    0.512815822524418  0.0000
  O2     O2        0.288454372419424    0.509331919625961    0.294469356712194  0.0000
  O3     O3        0.762205823627648    0.500885245662642    0.725932572341474  0.0000
  O2     O2        0.785104267120221    0.004695570089784    0.295013656357329  0.0000
  O2     O2        0.251037542388046    0.993144409789062    0.718569382886927  0.0000
  O2     O2        0.409813165084029    0.502554561440563    0.734128684223251  0.0000
  O2     O2        0.629763289769553    0.505324481506452    0.258969095695253  0.0000
  O3     O3        0.908573763182805    0.992350732850297    0.739554640100514  0.0000
  O2     O2        0.132176145740185    0.999997766775316    0.262045271351427  0.0000
