data_c00464.vasp
_audit_creation_method             Generated by GULP
_audit_author_name                 Salvador R. G. Balestra
_symmetry_space_group_name_H-M     'P 1             '
_symmetry_Int_Tables_number        1

loop_
_symmetry_equiv_pos_site_id
_symmetry_equiv_pos_as_xyz
_cell_length_a                       10.3056
_cell_length_b                       15.2334
_cell_length_c                        8.9295
_cell_angle_alpha                   90.1567
_cell_angle_beta                   104.9812
_cell_angle_gamma                   89.6446

loop_
_atom_site_label
_atom_site_type_symbol
_atom_site_fract_x
_atom_site_fract_y
_atom_site_fract_z
_atom_site_charge
  Ge     Ge        0.351599999999962    0.244500000000016    0.893900000000031  0.0000
  Ge     Ge        0.142260418283956    0.257112734787889    0.112031357881881  0.0000
  Ge     Ge        0.714211674072204    0.403836295073339    0.670768613575778  0.0000
  Ge     Ge        0.802240105506229    0.903341539340830    0.334185724875021  0.0000
  Si     Si        0.646890053013485    0.247916314286851    0.105974074867968  0.0000
  Si     Si        0.642700624052172    0.761927973560180    0.104895075385423  0.0000
  Si     Si        0.348461986001496    0.753931037945919    0.892869181483174  0.0000
  Si     Si        0.852673167377116    0.751756468919234    0.899851079672726  0.0000
  Si     Si        0.145985009562606    0.741624108227241    0.104550650435419  0.0000
  Si     Si        0.849059564156374    0.257161329369852    0.901646651677728  0.0000
  Si     Si        0.314954595990570    0.402219916752466    0.333887175795719  0.0000
  Si     Si        0.706657246724671    0.609992187956595    0.669299305015319  0.0000
  Si     Si        0.310989852275860    0.605028472854280    0.331253799095369  0.0000
  Si     Si        0.201974968435883    0.896221889967326    0.666523493027534  0.0000
  Si     Si        0.214650895522634    0.096833638385934    0.671729220708997  0.0000
  Si     Si        0.819235455510955    0.110672678746424    0.336176409837010  0.0000
  Si     Si        0.411983096163639    0.401786596588656    0.691298001371968  0.0000
  Si     Si        0.611121596613577    0.404718617338370    0.305818506435540  0.0000
  Si     Si        0.607302045954651    0.607102116565759    0.310690413281987  0.0000
  Si     Si        0.408391286379430    0.604961395334466    0.686459717864235  0.0000
  Si     Si        0.905214896644555    0.903632150087085    0.694617642446848  0.0000
  Si     Si        0.104360331812279    0.894890474702382    0.311069287221007  0.0000
  Si     Si        0.114561827675639    0.096835858653203    0.312825250006963  0.0000
  Si     Si        0.918895868038129    0.106416844662473    0.695200345029543  0.0000
  O3     O3        0.492846919282586    0.222801458112492    0.040042190090457  0.0000
  O2     O2        0.491106109660098    0.775758469863479    0.006250038798050  0.0000
  O2     O2        0.993150284971708    0.722387204555054    0.013961466418248  0.0000
  O3     O3        0.972048881224161    0.274795179249862    0.046792011593017  0.0000
  O3     O3        0.332032991687091    0.157936570893631    0.763741922944161  0.0000
  O2     O2        0.711432972206169    0.179108894860438    0.240710844969410  0.0000
  O3     O3        0.674283832206455    0.841540795457729    0.224368142577666  0.0000
  O2     O2        0.312715881263187    0.831648023935955    0.767703883094458  0.0000
  O2     O2        0.813116683215279    0.679370006496823    0.764344321196559  0.0000
  O2     O2        0.192163475341316    0.663237698102043    0.227180396088580  0.0000
  O3     O3        0.199127012000600    0.342447634249894    0.237702908040606  0.0000
  O3     O3        0.835161412609002    0.335666089387587    0.779528346363292  0.0000
  O3     O3        0.355034138149777    0.344673968351980    0.806440746344026  0.0000
  O2     O2        0.658944971090637    0.345683201333774    0.180429222095108  0.0000
  O2     O2        0.662082423541120    0.669671610707917    0.197412505074425  0.0000
  O2     O2        0.350982263347978    0.662120403246840    0.805049868541384  0.0000
  O2     O2        0.863850407474500    0.846676812944809    0.825463605997128  0.0000
  O2     O2        0.161056831638824    0.833888990328228    0.195555599175180  0.0000
  O3     O3        0.177421064087736    0.156996471338188    0.206643591912298  0.0000
  O2     O2        0.868562706808889    0.166443394386372    0.815759296800614  0.0000
  O1     O1        0.212726516832656    0.253997197841725    0.961698167576217  0.0000
  O2     O2        0.715911253303083    0.247817350668519    0.963866095795093  0.0000
  O2     O2        0.741666774195843    0.760778043669756    0.994036894757349  0.0000
  O2     O2        0.236010347393139    0.745786242464883    0.984706463521375  0.0000
  O2     O2        0.457429366644714    0.378788219963326    0.298510939132791  0.0000
  O3     O3        0.564936183389371    0.374815047578484    0.707632437641213  0.0000
  O2     O2        0.562153299357419    0.630323195800051    0.700247975002957  0.0000
  O2     O2        0.452152617259727    0.631162132373171    0.297500238351098  0.0000
  O3     O3        0.951761284202518    0.870084702446515    0.299098481628782  0.0000
  O2     O2        0.055655363215048    0.876730697134374    0.690326912061765  0.0000
  O2     O2        0.075346172834438    0.125869675363570    0.710944248739455  0.0000
  O2     O2        0.961743577521298    0.128390864281483    0.299034255518383  0.0000
  O2     O2        0.326731310098459    0.386250931349341    0.514677443937445  0.0000
  O3     O3        0.704390246672592    0.389493282220813    0.476294424027942  0.0000
  O2     O2        0.695880404894007    0.620668875457344    0.486374545481982  0.0000
  O2     O2        0.319121350065776    0.621718502809513    0.511826495548040  0.0000
  O3     O3        0.807072316167580    0.887745632473460    0.527140151100157  0.0000
  O2     O2        0.195751266350611    0.881881491535285    0.486071571354750  0.0000
  O2     O2        0.200946732609165    0.107060507303048    0.489498808078378  0.0000
  O2     O2        0.832952962166684    0.124797551101047    0.519485323924532  0.0000
  O2     O2        0.278920941476751    0.503612035722329    0.289713219670977  0.0000
  O3     O3        0.753114804593234    0.512073503601887    0.719989705387640  0.0000
  O3     O3        0.771886027549239    0.012735134086961    0.289045627058975  0.0000
  O2     O2        0.245834593600941    0.995231929300690    0.718847426954394  0.0000
  O2     O2        0.402167557349857    0.504104417120812    0.734059490302749  0.0000
  O2     O2        0.619563991799596    0.506633762163221    0.259308330275918  0.0000
  O2     O2        0.899628090202608    0.005925560449295    0.740010004215846  0.0000
  O2     O2        0.113277756057138    0.995604714569218    0.259781001533104  0.0000
