data_c00421.vasp
_audit_creation_method             Generated by GULP
_audit_author_name                 Salvador R. G. Balestra
_symmetry_space_group_name_H-M     'P 1             '
_symmetry_Int_Tables_number        1

loop_
_symmetry_equiv_pos_site_id
_symmetry_equiv_pos_as_xyz
_cell_length_a                       10.2509
_cell_length_b                       15.2278
_cell_length_c                        8.9595
_cell_angle_alpha                   89.6524
_cell_angle_beta                   105.1683
_cell_angle_gamma                   90.1556

loop_
_atom_site_label
_atom_site_type_symbol
_atom_site_fract_x
_atom_site_fract_y
_atom_site_fract_z
_atom_site_charge
  Ge     Ge        0.351599999999962    0.244500000000016    0.893900000000031  0.0000
  Ge     Ge        0.122389329860362    0.748620749058618    0.101613415644053  0.0000
  Ge     Ge        0.690479118946511    0.600958954291051    0.665592249302216  0.0000
  Ge     Ge        0.882749720707856    0.102918694277998    0.689013579286258  0.0000
  Si     Si        0.652318667824817    0.249903963901832    0.104773700308565  0.0000
  Si     Si        0.616745306776634    0.759071368394488    0.093857453243728  0.0000
  Si     Si        0.324133409082094    0.757057368440836    0.883557991694080  0.0000
  Si     Si        0.822338568784648    0.747024649326993    0.892158384929776  0.0000
  Si     Si        0.143673993960624    0.258693109830888    0.104697365205864  0.0000
  Si     Si        0.851909094460660    0.258918444167787    0.897794589071392  0.0000
  Si     Si        0.287103288428320    0.401507873564349    0.326922182747875  0.0000
  Si     Si        0.681674338479399    0.395258476004781    0.668039500110977  0.0000
  Si     Si        0.287835444132614    0.603233299819325    0.328870431065258  0.0000
  Si     Si        0.786098260644383    0.899547712060380    0.318704703074850  0.0000
  Si     Si        0.178785590622121    0.899357959129382    0.661911903726345  0.0000
  Si     Si        0.186210325142011    0.103321711450576    0.667096399628866  0.0000
  Si     Si        0.780394232760901    0.101820658229843    0.330696541424515  0.0000
  Si     Si        0.382265560522910    0.401586318106423    0.684284434127680  0.0000
  Si     Si        0.585318850235976    0.400789542498047    0.308964209397697  0.0000
  Si     Si        0.588099653388000    0.603098603039300    0.304543317065405  0.0000
  Si     Si        0.386260433334702    0.605072903997329    0.682779304044097  0.0000
  Si     Si        0.881052452565113    0.895580638311576    0.677495266868654  0.0000
  Si     Si        0.087144715743544    0.905451209091507    0.304587856497420  0.0000
  Si     Si        0.083451053995807    0.106167104944325    0.314673718136401  0.0000
  O3     O3        0.522158127256958    0.231610514326717    0.969019792612958  0.0000
  O2     O2        0.458965533892243    0.778104681327552    0.017363896456972  0.0000
  O3     O3        0.951024464810560    0.736875157368548    0.033750124521076  0.0000
  O2     O2        0.010925434708959    0.279318139393322    0.967204846578886  0.0000
  O3     O3        0.308439156592901    0.158007803107073    0.768162938392690  0.0000
  O2     O2        0.674506426788422    0.165983803341732    0.219009335714647  0.0000
  O2     O2        0.672820023265666    0.836875902914544    0.214754283012970  0.0000
  O2     O2        0.297538083488309    0.837610538117129    0.760646106877783  0.0000
  O3     O3        0.813739173287234    0.664371100131667    0.780661731752557  0.0000
  O3     O3        0.172777706151321    0.663106361283471    0.228703219558402  0.0000
  O2     O2        0.171222334444867    0.339800312736484    0.224335664269545  0.0000
  O2     O2        0.794980973368906    0.328645721783649    0.760516854441942  0.0000
  O3     O3        0.319265651301354    0.343386745508913    0.794580017032418  0.0000
  O2     O2        0.639480601868138    0.338509034430804    0.196476585511125  0.0000
  O2     O2        0.634346237080534    0.665533541603258    0.182745551924794  0.0000
  O2     O2        0.332000748644958    0.664998233336584    0.799678743401620  0.0000
  O2     O2        0.823133713636094    0.833925261102683    0.789431337805954  0.0000
  O3     O3        0.152341421368296    0.847907605422340    0.197122425333358  0.0000
  O2     O2        0.124247437592163    0.169761878298841    0.193152028431105  0.0000
  O3     O3        0.829478734312115    0.163283480850392    0.822920632358945  0.0000
  O3     O3        0.270366959169453    0.243237896061712    0.037417351012242  0.0000
  O2     O2        0.780099802359701    0.265496614421468    0.035643173293120  0.0000
  O2     O2        0.691146428316193    0.753756499870230    0.958458835480130  0.0000
  O3     O3        0.198161903723010    0.747704242490784    0.954403455458997  0.0000
  O2     O2        0.429232135591821    0.377054912793138    0.292388310760629  0.0000
  O2     O2        0.537508877185392    0.372548579429807    0.700918462037986  0.0000
  O3     O3        0.537482959173455    0.632685528529947    0.692279703419828  0.0000
  O2     O2        0.434013603749444    0.626804758809813    0.302549295115954  0.0000
  O2     O2        0.929703283652800    0.879758047460065    0.283810493245072  0.0000
  O2     O2        0.037325454849499    0.870841944184125    0.694698749768775  0.0000
  O3     O3        0.046905059920376    0.134222258788106    0.700222376852628  0.0000
  O2     O2        0.931140369636519    0.124288364452137    0.320113446164357  0.0000
  O2     O2        0.296451099773736    0.386993549280636    0.507350982635644  0.0000
  O2     O2        0.671123305613192    0.386808660335143    0.485433834998710  0.0000
  O3     O3        0.685658723700924    0.616389056368901    0.473244667977346  0.0000
  O2     O2        0.293464298195545    0.617520281339211    0.508518680147481  0.0000
  O2     O2        0.796142403977950    0.882371431819763    0.499437882578789  0.0000
  O2     O2        0.170169834333602    0.888294079218869    0.481622283492490  0.0000
  O2     O2        0.180033551652672    0.119110871719913    0.486331018857398  0.0000
  O3     O3        0.777318734232633    0.117259287791454    0.505369680020270  0.0000
  O2     O2        0.251025901660821    0.502343236524023    0.281270196160705  0.0000
  O3     O3        0.724914585329113    0.493138154609081    0.719484068960405  0.0000
  O2     O2        0.743875230750795    0.000914142887047    0.279906226957661  0.0000
  O2     O2        0.208741480017351    0.000312017798889    0.710226735344937  0.0000
  O2     O2        0.379924744451717    0.503263288843867    0.731972979478325  0.0000
  O2     O2        0.597855011485284    0.501396302617216    0.256612233142780  0.0000
  O3     O3        0.872253694968635    0.993672670922349    0.733451177379555  0.0000
  O2     O2        0.097372703134403    0.007154666394648    0.258731345129130  0.0000
