data_c00407.vasp
_audit_creation_method             Generated by GULP
_audit_author_name                 Salvador R. G. Balestra
_symmetry_space_group_name_H-M     'P 1             '
_symmetry_Int_Tables_number        1

loop_
_symmetry_equiv_pos_site_id
_symmetry_equiv_pos_as_xyz
_cell_length_a                       10.3050
_cell_length_b                       15.2087
_cell_length_c                        8.9495
_cell_angle_alpha                   90.3474
_cell_angle_beta                   105.0734
_cell_angle_gamma                   89.9975

loop_
_atom_site_label
_atom_site_type_symbol
_atom_site_fract_x
_atom_site_fract_y
_atom_site_fract_z
_atom_site_charge
  Ge     Ge        0.351599999999962    0.244500000000016    0.893900000000031  0.0000
  Ge     Ge        0.165498434476628    0.742409400810395    0.091980411758753  0.0000
  Ge     Ge        0.711311983646383    0.403459596450964    0.670246898959918  0.0000
  Ge     Ge        0.905460363420495    0.901470956237600    0.685551394198483  0.0000
  Si     Si        0.651066408294469    0.245020088788867    0.103314664203051  0.0000
  Si     Si        0.667395504041298    0.755867203367596    0.095715381838570  0.0000
  Si     Si        0.376552667848624    0.759707790706556    0.885418814266397  0.0000
  Si     Si        0.866730032455614    0.745593429106325    0.887356317101609  0.0000
  Si     Si        0.146303133951343    0.255331050478026    0.107847570975650  0.0000
  Si     Si        0.855786446975182    0.259480111146965    0.898857595445083  0.0000
  Si     Si        0.314888823471171    0.396157650416567    0.331364496457853  0.0000
  Si     Si        0.701951210950357    0.609048118345034    0.656606896547709  0.0000
  Si     Si        0.304794869567147    0.598615990210799    0.324048148935787  0.0000
  Si     Si        0.806354363190733    0.901637206759993    0.324256425218642  0.0000
  Si     Si        0.205813149120295    0.895608774417946    0.661917776079157  0.0000
  Si     Si        0.209945628980281    0.100417227965319    0.663694160457628  0.0000
  Si     Si        0.814967079643122    0.104302733525721    0.328552492156185  0.0000
  Si     Si        0.407972535272949    0.400387243398388    0.688319280227529  0.0000
  Si     Si        0.611926038496477    0.401534550315517    0.305631067887566  0.0000
  Si     Si        0.600684480036561    0.603760940890608    0.299641522551879  0.0000
  Si     Si        0.405320426178926    0.603889332178075    0.678872014786373  0.0000
  Si     Si        0.107883090851578    0.898483143378115    0.306921968167962  0.0000
  Si     Si        0.112489367536104    0.099944225392994    0.308718264144584  0.0000
  Si     Si        0.914948545638286    0.108676697866847    0.686282715654349  0.0000
  O3     O3        0.497313964249135    0.221926447917994    0.029916208420865  0.0000
  O2     O2        0.534119935938854    0.776358116191487    0.962086367868477  0.0000
  O3     O3        0.021292850906189    0.720345239498436    0.952179848006429  0.0000
  O2     O2        0.988531742272859    0.273233766486637    0.037102820085403  0.0000
  O3     O3        0.328993838489342    0.158739839068608    0.762054001566263  0.0000
  O2     O2        0.706135251678469    0.169887002764525    0.229034611306337  0.0000
  O2     O2        0.697300714824725    0.839212462515790    0.211683050570560  0.0000
  O2     O2        0.326776156164255    0.838338412769112    0.764594840450212  0.0000
  O2     O2        0.809530734063398    0.679474429148566    0.744714963817627  0.0000
  O3     O3        0.188713887337261    0.656957356267867    0.222117209611945  0.0000
  O2     O2        0.202206086683164    0.333080660155693    0.229742699055085  0.0000
  O3     O3        0.836783964871480    0.341254030449065    0.784343446053484  0.0000
  O3     O3        0.350226599173862    0.344676337468318    0.804758498571392  0.0000
  O2     O2        0.663376789765638    0.340672524310313    0.185833187903198  0.0000
  O2     O2        0.652127911215649    0.667099254765488    0.185907020810824  0.0000
  O2     O2        0.350796396569564    0.666594619230702    0.793560924441756  0.0000
  O3     O3        0.849449111432320    0.843283981457483    0.819905787007523  0.0000
  O3     O3        0.152977815529125    0.840522686636843    0.183753435050134  0.0000
  O2     O2        0.169011826365391    0.162116174323825    0.196395677887835  0.0000
  O2     O2        0.860388253407232    0.171854253727868    0.799006678010258  0.0000
  O3     O3        0.217218141864147    0.251658014880453    0.971854344512728  0.0000
  O2     O2        0.728718821605469    0.249500504395719    0.970180072210610  0.0000
  O2     O2        0.791282578311873    0.738002376844529    0.022494922302951  0.0000
  O3     O3        0.301171417777891    0.756665628052946    0.018289652363723  0.0000
  O2     O2        0.458609918402912    0.374694107864110    0.299893861823304  0.0000
  O3     O3        0.561136032180218    0.373424075972220    0.705228757129316  0.0000
  O2     O2        0.558280107450327    0.629719586609385    0.688542581798898  0.0000
  O2     O2        0.445506522553523    0.625336634472458    0.287831601004775  0.0000
  O2     O2        0.953790930969940    0.879190705425980    0.304695794415199  0.0000
  O3     O3        0.067973850585618    0.867032785487638    0.697796914995890  0.0000
  O2     O2        0.070161419203371    0.131532170277451    0.697822044557190  0.0000
  O2     O2        0.957716442901818    0.123867202269098    0.294714386969744  0.0000
  O2     O2        0.323149757119654    0.382287991846085    0.511451828395713  0.0000
  O3     O3        0.704042423348927    0.388523617898091    0.476687993574376  0.0000
  O2     O2        0.690495879121567    0.617795644277179    0.474147323891259  0.0000
  O2     O2        0.314439464621014    0.616134178575709    0.504540976450539  0.0000
  O3     O3        0.805799817880990    0.885577994749389    0.500106555178462  0.0000
  O2     O2        0.198380668761038    0.880783972976172    0.480859559951458  0.0000
  O2     O2        0.201073296726434    0.114574639771809    0.483225190528337  0.0000
  O2     O2        0.825680336072443    0.120113934045946    0.509650220563666  0.0000
  O2     O2        0.273956426953436    0.496187474771980    0.283877666413145  0.0000
  O3     O3        0.747989988119354    0.512486920712726    0.714552055078573  0.0000
  O2     O2        0.770510380334751    0.003778375419766    0.282674799616869  0.0000
  O2     O2        0.233332909262840    0.997982137176306    0.706228113082210  0.0000
  O2     O2        0.398694561132001    0.503321430347139    0.730321202554931  0.0000
  O2     O2        0.616174063232207    0.502590742393100    0.251284261236998  0.0000
  O3     O3        0.902423732670217    0.009949064797327    0.738405325187848  0.0000
  O2     O2        0.124264748654033    0.999288061681712    0.259105540574441  0.0000
