data_c00415.vasp
_audit_creation_method             Generated by GULP
_audit_author_name                 Salvador R. G. Balestra
_symmetry_space_group_name_H-M     'P 1             '
_symmetry_Int_Tables_number        1

loop_
_symmetry_equiv_pos_site_id
_symmetry_equiv_pos_as_xyz
_cell_length_a                       10.1983
_cell_length_b                       15.2455
_cell_length_c                        8.9350
_cell_angle_alpha                   90.1206
_cell_angle_beta                   105.1705
_cell_angle_gamma                   90.5271

loop_
_atom_site_label
_atom_site_type_symbol
_atom_site_fract_x
_atom_site_fract_y
_atom_site_fract_z
_atom_site_charge
  Ge     Ge        0.351599999999962    0.244500000000016    0.893900000000031  0.0000
  Ge     Ge        0.153153702189802    0.736154787957309    0.099339064353610  0.0000
  Ge     Ge        0.722288888670586    0.598073048992567    0.658809033566334  0.0000
  Ge     Ge        0.620929246000747    0.388622678442522    0.306070655019045  0.0000
  Si     Si        0.652043794477374    0.229767049311211    0.101928423836942  0.0000
  Si     Si        0.648659901389267    0.751697206791682    0.093235160748145  0.0000
  Si     Si        0.354971331383846    0.751326255407457    0.882198898017105  0.0000
  Si     Si        0.853609519345722    0.745928746132579    0.889309840583755  0.0000
  Si     Si        0.141369360101813    0.252482423964769    0.102201678358934  0.0000
  Si     Si        0.848685008675604    0.244707562510145    0.890559058825585  0.0000
  Si     Si        0.317663012831338    0.386788883343746    0.330391892770198  0.0000
  Si     Si        0.720354784817425    0.394957206412112    0.671602580967213  0.0000
  Si     Si        0.320012190005844    0.591572758281993    0.321131053689074  0.0000
  Si     Si        0.823066090351845    0.888213682363181    0.325412391705891  0.0000
  Si     Si        0.218770300688154    0.897563667701849    0.667323829549697  0.0000
  Si     Si        0.218328779906451    0.097848435140251    0.660500255298961  0.0000
  Si     Si        0.818608284615566    0.091620074311818    0.323972514902253  0.0000
  Si     Si        0.415960162830917    0.397701668069882    0.684270710410073  0.0000
  Si     Si        0.618692504185931    0.592746930624271    0.293692640463447  0.0000
  Si     Si        0.415713367244537    0.601330648449428    0.673672859580672  0.0000
  Si     Si        0.917127439536056    0.894530703071595    0.681905255679688  0.0000
  Si     Si        0.124574924463647    0.893897406626533    0.307556600373174  0.0000
  Si     Si        0.118302499630596    0.094298563204644    0.302240662297298  0.0000
  Si     Si        0.916627568908545    0.097612158353754    0.678524181717771  0.0000
  O3     O3        0.491213347281349    0.220259190272404    0.040695986549279  0.0000
  O2     O2        0.489485621280766    0.769253519769367    0.020307247617509  0.0000
  O3     O3        0.980154989635328    0.727766078852263    0.031613203113507  0.0000
  O2     O2        0.980510039666116    0.264596593315823    0.030409325368771  0.0000
  O3     O3        0.330727512845811    0.163416447833561    0.754667712558226  0.0000
  O2     O2        0.700681562581937    0.148393579563221    0.216771896311813  0.0000
  O2     O2        0.706381911775612    0.827726173478668    0.218984136145273  0.0000
  O2     O2        0.333855036062573    0.834254291331201    0.765937171353848  0.0000
  O3     O3        0.842055165441987    0.669906514746106    0.762684038584290  0.0000
  O3     O3        0.201175758242868    0.644644709913203    0.211163368381642  0.0000
  O2     O2        0.192920921673439    0.330192326513688    0.226789698595468  0.0000
  O2     O2        0.825143531785743    0.326919456144888    0.774760158917257  0.0000
  O3     O3        0.368879893198241    0.345123321432542    0.813201188379296  0.0000
  O3     O3        0.689420742423962    0.320605807129482    0.194354478550330  0.0000
  O2     O2        0.669366625386565    0.658005954530063    0.178729581024811  0.0000
  O2     O2        0.361092255295156    0.661381371570955    0.790757458065635  0.0000
  O2     O2        0.865289584822123    0.838653849052644    0.806271301850543  0.0000
  O3     O3        0.191241051296145    0.831609553528720    0.207695793010478  0.0000
  O2     O2        0.172124281980109    0.158893802963909    0.189628736221185  0.0000
  O2     O2        0.863932267498509    0.156736168416777    0.797539929251830  0.0000
  O3     O3        0.211577507604880    0.254628615919702    0.963830916881296  0.0000
  O2     O2        0.719341107817584    0.229117821922417    0.958121171452747  0.0000
  O2     O2        0.720664338456400    0.749722980671831    0.954252627981221  0.0000
  O3     O3        0.225946152232700    0.741096999691379    0.948634552509357  0.0000
  O3     O3        0.456203585135211    0.354918989350919    0.296560026829567  0.0000
  O2     O2        0.568802171124579    0.372482447912246    0.684831367829909  0.0000
  O3     O3        0.567407179880521    0.629968103959356    0.681413105375295  0.0000
  O2     O2        0.466028803154619    0.619993089366403    0.296921978081112  0.0000
  O2     O2        0.965828405273905    0.868868233978385    0.286590867428324  0.0000
  O2     O2        0.075948796730047    0.875828047907928    0.705041275325640  0.0000
  O2     O2        0.074758970775677    0.119060308555823    0.697116969614145  0.0000
  O2     O2        0.960406120742756    0.114008443182879    0.285304908240817  0.0000
  O2     O2        0.321476610628652    0.376077814099947    0.511671096969552  0.0000
  O3     O3        0.721269998270673    0.386732129970023    0.493447210318348  0.0000
  O3     O3        0.718032057724386    0.599931532826336    0.464910947837651  0.0000
  O2     O2        0.320840099208704    0.611624571759119    0.498997846864363  0.0000
  O2     O2        0.835105579042569    0.868429852741431    0.506396899413617  0.0000
  O2     O2        0.205620973759870    0.882430630315961    0.486533433777334  0.0000
  O2     O2        0.204641063017949    0.110206132479137    0.478328458507937  0.0000
  O2     O2        0.830214058216325    0.116244630903274    0.502828447290586  0.0000
  O2     O2        0.296362560178699    0.488523898240726    0.283738274452796  0.0000
  O3     O3        0.761456862866767    0.493235419858272    0.728528258427342  0.0000
  O2     O2        0.782176543528147    0.989298238111596    0.291804701360438  0.0000
  O2     O2        0.260815189616561    0.998318975465606    0.711188904239560  0.0000
  O2     O2        0.410454486664978    0.500341324848507    0.724737836373191  0.0000
  O3     O3        0.619029035987583    0.493930900950628    0.234128670141151  0.0000
  O2     O2        0.895706868095475    0.996151428265467    0.716830311295161  0.0000
  O2     O2        0.136001057872154    0.994216295547404    0.253687264094747  0.0000
