data_c00436.vasp
_audit_creation_method             Generated by GULP
_audit_author_name                 Salvador R. G. Balestra
_symmetry_space_group_name_H-M     'P 1             '
_symmetry_Int_Tables_number        1

loop_
_symmetry_equiv_pos_site_id
_symmetry_equiv_pos_as_xyz
_cell_length_a                       10.2417
_cell_length_b                       15.1933
_cell_length_c                        8.9523
_cell_angle_alpha                   89.9289
_cell_angle_beta                   105.3020
_cell_angle_gamma                   89.4561

loop_
_atom_site_label
_atom_site_type_symbol
_atom_site_fract_x
_atom_site_fract_y
_atom_site_fract_z
_atom_site_charge
  Ge     Ge        0.351599999999962    0.244500000000016    0.893900000000031  0.0000
  Ge     Ge        0.138909195403165    0.755508086031033    0.090526292559945  0.0000
  Ge     Ge        0.374690382657752    0.405713647069859    0.675155731414272  0.0000
  Ge     Ge        0.085815063762288    0.114337101613243    0.316110123780674  0.0000
  Si     Si        0.651687709436704    0.259362634561447    0.097424038100662  0.0000
  Si     Si        0.643638084514208    0.764859472069919    0.093957823931637  0.0000
  Si     Si        0.349779367233482    0.767645378529696    0.885110422011773  0.0000
  Si     Si        0.840562812322659    0.748621327027335    0.879810018266358  0.0000
  Si     Si        0.143729149377709    0.265958350849618    0.095685468765111  0.0000
  Si     Si        0.850499463707744    0.266988277185880    0.886468767488531  0.0000
  Si     Si        0.278645828804866    0.411811813728189    0.311750819108166  0.0000
  Si     Si        0.680229093017853    0.403897817862846    0.655251354029059  0.0000
  Si     Si        0.676710713676639    0.608501363888345    0.656985022395901  0.0000
  Si     Si        0.280689253825432    0.611729824808372    0.323139887187773  0.0000
  Si     Si        0.775219137387910    0.913116652913126    0.319091000261264  0.0000
  Si     Si        0.169006848096169    0.899709924007247    0.653764247002395  0.0000
  Si     Si        0.177739447589807    0.106454235324851    0.670427949669788  0.0000
  Si     Si        0.775634907832333    0.112455556416949    0.327598503155890  0.0000
  Si     Si        0.581432173828960    0.410150485736291    0.299994028602451  0.0000
  Si     Si        0.579085400365485    0.614016286444356    0.302242782893337  0.0000
  Si     Si        0.379968496718864    0.609037232585836    0.683137444948558  0.0000
  Si     Si        0.872199085957463    0.905484524972778    0.677904184615976  0.0000
  Si     Si        0.080159900052032    0.908631015644723    0.304367089052749  0.0000
  Si     Si        0.876973399291260    0.108278115849181    0.687059028157327  0.0000
  O3     O3        0.524884296418435    0.237181583729045    0.958119533473623  0.0000
  O2     O2        0.508618994756854    0.784783774888248    0.959269017139109  0.0000
  O3     O3        0.997855463313683    0.729917100141956    0.947264592432796  0.0000
  O2     O2        0.010285039215119    0.281845846706496    0.955390183049227  0.0000
  O3     O3        0.299874132440998    0.148671797029909    0.793895531686353  0.0000
  O2     O2        0.669889595104738    0.183121907261606    0.227681397709426  0.0000
  O2     O2        0.670049131327948    0.846210068480376    0.213619609724713  0.0000
  O2     O2        0.291219937800930    0.847464368868687    0.767766994425733  0.0000
  O2     O2        0.790422902821785    0.668579569913788    0.762997397058046  0.0000
  O3     O3        0.164696454661671    0.676176377302551    0.233613687288979  0.0000
  O2     O2        0.162779031946440    0.350560867100802    0.208304125739831  0.0000
  O2     O2        0.799291263038204    0.344021472011834    0.760866551293508  0.0000
  O1     O1        0.306620763774228    0.335452543860538    0.778928619197299  0.0000
  O2     O2        0.630400384459513    0.352509090371559    0.174934909245303  0.0000
  O2     O2        0.632253902016050    0.675087231105603    0.185368268532678  0.0000
  O2     O2        0.324152629715983    0.677271190542460    0.788158202429111  0.0000
  O2     O2        0.813672972002751    0.841745305998403    0.787078994721445  0.0000
  O3     O3        0.119005506295530    0.855279429857562    0.171110107092781  0.0000
  O3     O3        0.134148150354090    0.176087814823638    0.182854616212080  0.0000
  O2     O2        0.822849324775885    0.172078683908239    0.801332730268784  0.0000
  O3     O3        0.279341102733996    0.256297507740761    0.043094565833402  0.0000
  O2     O2        0.780577504891298    0.268743252702062    0.027264699745905  0.0000
  O2     O2        0.768430304556408    0.752548242297431    0.018694967320059  0.0000
  O3     O3        0.279262142261834    0.761743769223773    0.021895555684051  0.0000
  O2     O2        0.427134904758505    0.386516001195948    0.292151485039869  0.0000
  O3     O3        0.540845020661602    0.376086886743312    0.688215607955660  0.0000
  O2     O2        0.534607385496911    0.632716499610836    0.691102353215551  0.0000
  O2     O2        0.423866970295663    0.639043582320113    0.291858346352979  0.0000
  O2     O2        0.918497380374658    0.906400525676354    0.279582741372739  0.0000
  O2     O2        0.031338523036456    0.882708689135519    0.704862490013216  0.0000
  O2     O2        0.036068375294259    0.125719267797995    0.713123107359301  0.0000
  O3     O3        0.913950709827108    0.124907670971273    0.282682773410170  0.0000
  O3     O3        0.277926773311004    0.398881502742224    0.487215272014123  0.0000
  O2     O2        0.673200124573467    0.390407032189078    0.473598478996541  0.0000
  O2     O2        0.669694541103536    0.627645647553281    0.477608772552921  0.0000
  O2     O2        0.291287278720955    0.614565284979948    0.505562542917135  0.0000
  O2     O2        0.792417018163982    0.890020811173769    0.499366610757744  0.0000
  O2     O2        0.151125845397227    0.869456137303640    0.476564145917258  0.0000
  O3     O3        0.166317381202461    0.146633122473765    0.502010614197262  0.0000
  O2     O2        0.796231987377896    0.129640904551919    0.510304592346794  0.0000
  O2     O2        0.244796969843424    0.512993111669235    0.260626504688731  0.0000
  O2     O2        0.711410767630518    0.506193380580113    0.697398877415821  0.0000
  O2     O2        0.719371369949887    0.013332024688482    0.287124611798389  0.0000
  O2     O2        0.202322284271442    0.002281108455982    0.664445900776227  0.0000
  O3     O3        0.370677574001104    0.511672121705187    0.744579161811578  0.0000
  O2     O2        0.591955247134793    0.512333764225890    0.255015601153779  0.0000
  O2     O2        0.853562645859778    0.006552133251763    0.726049548111604  0.0000
  O3     O3        0.128554737708653    0.006795899909376    0.291303353939860  0.0000
