data_c00567.vasp
_audit_creation_method             Generated by GULP
_audit_author_name                 Salvador R. G. Balestra
_symmetry_space_group_name_H-M     'P 1             '
_symmetry_Int_Tables_number        1

loop_
_symmetry_equiv_pos_site_id
_symmetry_equiv_pos_as_xyz
_cell_length_a                       10.1971
_cell_length_b                       15.1993
_cell_length_c                        8.9844
_cell_angle_alpha                   89.4561
_cell_angle_beta                   105.1449
_cell_angle_gamma                   90.0515

loop_
_atom_site_label
_atom_site_type_symbol
_atom_site_fract_x
_atom_site_fract_y
_atom_site_fract_z
_atom_site_charge
  Ge     Ge        0.351599999999962    0.244500000000016    0.893900000000031  0.0000
  Ge     Ge        0.854643213746428    0.267438314267317    0.893771861325390  0.0000
  Ge     Ge        0.581558860686289    0.411489001901354    0.305329526358592  0.0000
  Ge     Ge        0.365878765651135    0.611115640385405    0.684347863628655  0.0000
  Si     Si        0.649734231129723    0.257476618424770    0.101208524522814  0.0000
  Si     Si        0.626819671891985    0.770195740523434    0.095382543180844  0.0000
  Si     Si        0.330210612560118    0.767236470629823    0.889981387070469  0.0000
  Si     Si        0.831363644212355    0.751994901115822    0.887591284822133  0.0000
  Si     Si        0.127307702689730    0.757781606608646    0.097289360237445  0.0000
  Si     Si        0.150883922966337    0.261929102620621    0.106698794890473  0.0000
  Si     Si        0.273077880066385    0.410552984754501    0.323724011331927  0.0000
  Si     Si        0.673889799535532    0.408378701475847    0.665022095101604  0.0000
  Si     Si        0.667893731017933    0.615857368239977    0.662534849220270  0.0000
  Si     Si        0.267622665073263    0.611321435354754    0.324736610376195  0.0000
  Si     Si        0.766798202887346    0.913322694092727    0.320526714666623  0.0000
  Si     Si        0.164382158414109    0.901438269276232    0.655577238805970  0.0000
  Si     Si        0.173051385401695    0.106077127385449    0.666193985759685  0.0000
  Si     Si        0.775151228553690    0.113266290987322    0.330629423282875  0.0000
  Si     Si        0.373481207791770    0.404528749287008    0.681725545793674  0.0000
  Si     Si        0.575675284745631    0.617330801457079    0.311163894307732  0.0000
  Si     Si        0.865286848997089    0.904469740339290    0.675095112470272  0.0000
  Si     Si        0.070856623065885    0.909113040755448    0.304169560711540  0.0000
  Si     Si        0.077624473809922    0.110694609516850    0.311512325440039  0.0000
  Si     Si        0.873834906523968    0.107938001584240    0.686472923705430  0.0000
  O3     O3        0.525020885058912    0.232148193118284    0.960084599725716  0.0000
  O2     O2        0.487778073570165    0.787040403201909    0.966782853029734  0.0000
  O2     O2        0.988686312417152    0.737085522333608    0.971308175355503  0.0000
  O3     O3        0.027903820770802    0.280226554388756    0.958702197689696  0.0000
  O3     O3        0.295786850925991    0.156934855214976    0.774159490408431  0.0000
  O2     O2        0.666703765103743    0.183350655820500    0.236647616281788  0.0000
  O2     O2        0.654893761568588    0.852565222801440    0.210735414112353  0.0000
  O2     O2        0.282071481957110    0.840588468909917    0.756748435254392  0.0000
  O2     O2        0.789388394563409    0.669821047297430    0.773932373264502  0.0000
  O2     O2        0.159360357136681    0.675816933040152    0.215337521461257  0.0000
  O2     O2        0.162622363720501    0.343253880988456    0.224893449358471  0.0000
  O3     O3        0.795840028423232    0.356716752431892    0.776544793636531  0.0000
  O3     O3        0.312422021598700    0.340112837808511    0.785882103784609  0.0000
  O3     O3        0.627488153657774    0.351990832386408    0.167135383658593  0.0000
  O2     O2        0.618291484438175    0.682837570130870    0.192698907600702  0.0000
  O3     O3        0.307386150889976    0.672179550698262    0.813472414513086  0.0000
  O2     O2        0.807146730424336    0.842605380498479    0.788297210418482  0.0000
  O2     O2        0.116948030274375    0.847980383179282    0.184456595596985  0.0000
  O2     O2        0.126891768739773    0.172232884427002    0.192698365235837  0.0000
  O3     O3        0.816034741171567    0.169210208656017    0.795203336103689  0.0000
  O3     O3        0.286039701533829    0.249178417262316    0.050978431649051  0.0000
  O3     O3        0.786996832705819    0.262586193913620    0.048255554285177  0.0000
  O2     O2        0.747432641356563    0.756901703570720    0.014431590109644  0.0000
  O2     O2        0.248779088809513    0.772901144682615    0.018798021357392  0.0000
  O3     O3        0.414942180303269    0.386988826138189    0.291539861402331  0.0000
  O2     O2        0.529211124294175    0.376260425285460    0.690112248075154  0.0000
  O3     O3        0.527604513804936    0.647426386120824    0.691301848377635  0.0000
  O2     O2        0.419271990733871    0.631357414457122    0.311663813174341  0.0000
  O2     O2        0.911683722615486    0.895827555682867    0.287440473916331  0.0000
  O2     O2        0.021101964338539    0.877724390469320    0.690194274947556  0.0000
  O2     O2        0.032700052992332    0.131870686617746    0.707384364376085  0.0000
  O2     O2        0.918957659491106    0.127548114989898    0.292304961539361  0.0000
  O2     O2        0.283530728397456    0.400164279194037    0.504966321051470  0.0000
  O3     O3        0.677415246489259    0.390953130582852    0.490470491565630  0.0000
  O2     O2        0.668479832669104    0.633111962188560    0.484678141677013  0.0000
  O3     O3        0.262862222850168    0.623289795598696    0.499365348422763  0.0000
  O2     O2        0.776420630014123    0.891832874952102    0.499488303557974  0.0000
  O2     O2        0.155566515155489    0.883303064763978    0.476843250265757  0.0000
  O2     O2        0.160972570999897    0.129716820567690    0.487008268536005  0.0000
  O2     O2        0.790280317882363    0.127710819951346    0.510776412894523  0.0000
  O2     O2        0.229218024818193    0.510785247799448    0.272217203133885  0.0000
  O2     O2        0.687756338711593    0.512327616122768    0.699348707803330  0.0000
  O2     O2        0.722194492086053    0.014639457648632    0.283704556777077  0.0000
  O2     O2        0.200578921278577    0.002465814125908    0.694715265424649  0.0000
  O3     O3        0.369146181097812    0.502764209145617    0.741998786664942  0.0000
  O3     O3        0.598057268828951    0.520385885228654    0.257996681472719  0.0000
  O2     O2        0.857726401965203    0.005335469466506    0.725943963109427  0.0000
  O2     O2        0.100857846531581    0.010090880866143    0.267995788196512  0.0000
