data_c00524.vasp
_audit_creation_method             Generated by GULP
_audit_author_name                 Salvador R. G. Balestra
_symmetry_space_group_name_H-M     'P 1             '
_symmetry_Int_Tables_number        1

loop_
_symmetry_equiv_pos_site_id
_symmetry_equiv_pos_as_xyz
_cell_length_a                       10.2328
_cell_length_b                       15.2553
_cell_length_c                        8.9213
_cell_angle_alpha                   90.0611
_cell_angle_beta                   104.9596
_cell_angle_gamma                   89.9262

loop_
_atom_site_label
_atom_site_type_symbol
_atom_site_fract_x
_atom_site_fract_y
_atom_site_fract_z
_atom_site_charge
  Ge     Ge        0.351599999999962    0.244500000000016    0.893900000000031  0.0000
  Ge     Ge        0.842039980331168    0.244584839867394    0.885021411074556  0.0000
  Ge     Ge        0.317434939420027    0.393286422908238    0.326972885755167  0.0000
  Ge     Ge        0.124369758616499    0.095772115499420    0.294310915955566  0.0000
  Si     Si        0.643318216199455    0.231967750179819    0.103488725420507  0.0000
  Si     Si        0.684427471768140    0.746842262449251    0.090277785911887  0.0000
  Si     Si        0.389404579985499    0.755760624404378    0.881959826773783  0.0000
  Si     Si        0.888501029975901    0.734688095566002    0.878810018412512  0.0000
  Si     Si        0.182475803871493    0.739660838765368    0.088923453486980  0.0000
  Si     Si        0.141225462536141    0.256300927035905    0.093751597329115  0.0000
  Si     Si        0.722982777182764    0.395832323582865    0.656772443397690  0.0000
  Si     Si        0.726420567068343    0.597514737068647    0.650946343322286  0.0000
  Si     Si        0.325920263479866    0.598258769641346    0.317863878673314  0.0000
  Si     Si        0.826901854944395    0.890880655385571    0.319477883074921  0.0000
  Si     Si        0.224706811614885    0.892914681796404    0.655003254624829  0.0000
  Si     Si        0.217384146608946    0.097775143089633    0.661053041760507  0.0000
  Si     Si        0.820019276569640    0.091073611289641    0.315197885106670  0.0000
  Si     Si        0.425703048854952    0.398521701234758    0.689373566337091  0.0000
  Si     Si        0.622831306422784    0.392182799413314    0.298673880148358  0.0000
  Si     Si        0.626234086525138    0.593618714890070    0.294054174687592  0.0000
  Si     Si        0.428478036821570    0.601644116584088    0.674342494226856  0.0000
  Si     Si        0.925348276314568    0.889516656581375    0.675046955326873  0.0000
  Si     Si        0.131033253260066    0.892035756892559    0.299397108349507  0.0000
  Si     Si        0.919574288014963    0.092173853832786    0.678415495184467  0.0000
  O3     O3        0.483502990465174    0.217875355673867    0.049293941111114  0.0000
  O2     O2        0.544093093380451    0.772780384846827    0.971638604510894  0.0000
  O2     O2        0.043088811612554    0.715625247239874    0.966490891181367  0.0000
  O3     O3        0.979886988107989    0.261763691545475    0.037293897522546  0.0000
  O3     O3        0.331515815657998    0.158901341220728    0.763877744285722  0.0000
  O2     O2        0.701352113096756    0.153871232188836    0.222984827760359  0.0000
  O2     O2        0.720615788154662    0.824144857387040    0.216497551306201  0.0000
  O2     O2        0.343831640245011    0.836321550893830    0.763634011969710  0.0000
  O2     O2        0.843837468092902    0.658341558352088    0.751591474492005  0.0000
  O2     O2        0.215648316386003    0.663396099500315    0.216405704163885  0.0000
  O3     O3        0.188146490924932    0.330270689559636    0.223597382240302  0.0000
  O3     O3        0.832156187644217    0.331779313964470    0.758511494853278  0.0000
  O3     O3        0.383316680641355    0.343899451400971    0.818925757351004  0.0000
  O2     O2        0.679786946301261    0.326177483983213    0.189744265342252  0.0000
  O2     O2        0.676546112885654    0.654574764746365    0.174660654579512  0.0000
  O2     O2        0.373669224881004    0.664639511636819    0.787961290355821  0.0000
  O2     O2        0.872208300921674    0.828376453326110    0.792518263921955  0.0000
  O2     O2        0.173547759306764    0.830183607330077    0.176312026842670  0.0000
  O3     O3        0.184896074480261    0.162033037609696    0.173381155738801  0.0000
  O3     O3        0.852636598445250    0.148144768848327    0.787050800287343  0.0000
  O3     O3        0.207211057922517    0.266855016548076    0.951596228921183  0.0000
  O3     O3        0.700879907657055    0.232282526104647    0.953287699858768  0.0000
  O2     O2        0.799868959008051    0.735734670580986    0.001452911733922  0.0000
  O2     O2        0.300382308079870    0.749792013463878    0.003608450192209  0.0000
  O3     O3        0.467329453794442    0.368638879338716    0.282126359327403  0.0000
  O2     O2        0.579160434140324    0.373751930093308    0.690145370853475  0.0000
  O2     O2        0.584798304841237    0.623951556171162    0.686092411704780  0.0000
  O2     O2        0.470810540441295    0.614914900553450    0.283311097863613  0.0000
  O2     O2        0.971152912016813    0.883513740501408    0.281032766529298  0.0000
  O2     O2        0.084324429565862    0.871268990824094    0.696899383455880  0.0000
  O2     O2        0.079177535532345    0.114381353357738    0.714255863434355  0.0000
  O3     O3        0.950732220116698    0.107624597787084    0.253530700124001  0.0000
  O3     O3        0.330304317677051    0.376699524493275    0.520925896119703  0.0000
  O2     O2        0.710205984821879    0.379924160581590    0.475237944402366  0.0000
  O2     O2        0.716631493841762    0.610390094561505    0.468841069557772  0.0000
  O2     O2        0.338824579424149    0.615834713059212    0.499568053607941  0.0000
  O2     O2        0.842733195716382    0.867785267465631    0.499467451923858  0.0000
  O2     O2        0.212344341905512    0.868711755284283    0.475827352188243  0.0000
  O3     O3        0.196196984679129    0.124766232215365    0.483946753919976  0.0000
  O2     O2        0.851442470878024    0.111991187953276    0.497909094092345  0.0000
  O3     O3        0.277042051835193    0.500722180806592    0.276342128729736  0.0000
  O2     O2        0.762751994965958    0.496894021472186    0.698573278833739  0.0000
  O2     O2        0.772259164937660    0.989937906236019    0.285121936233460  0.0000
  O2     O2        0.258965821821962    0.995507350901900    0.681923522507654  0.0000
  O2     O2        0.415009614055618    0.501841391529578    0.724979264576929  0.0000
  O2     O2        0.638707069882651    0.492314999125341    0.246216226914601  0.0000
  O2     O2        0.901356467570367    0.989903806633401    0.714942420820750  0.0000
  O3     O3        0.166067596760471    0.989675397419164    0.261353085372403  0.0000
