data_c00580.vasp
_audit_creation_method             Generated by GULP
_audit_author_name                 Salvador R. G. Balestra
_symmetry_space_group_name_H-M     'P 1             '
_symmetry_Int_Tables_number        1

loop_
_symmetry_equiv_pos_site_id
_symmetry_equiv_pos_as_xyz
_cell_length_a                       10.2761
_cell_length_b                       15.2674
_cell_length_c                        8.9026
_cell_angle_alpha                   90.1289
_cell_angle_beta                   104.9250
_cell_angle_gamma                   89.9064

loop_
_atom_site_label
_atom_site_type_symbol
_atom_site_fract_x
_atom_site_fract_y
_atom_site_fract_z
_atom_site_charge
  Ge     Ge        0.351599999999962    0.244500000000016    0.893900000000031  0.0000
  Ge     Ge        0.320636342328429    0.396427002415584    0.324734355353999  0.0000
  Ge     Ge        0.720322522991171    0.390370128248660    0.672616247887055  0.0000
  Ge     Ge        0.821191608380788    0.093457252060970    0.330389832632826  0.0000
  Si     Si        0.652654264007268    0.235924313065215    0.101069342671343  0.0000
  Si     Si        0.683912557355843    0.746166727006027    0.102272761741163  0.0000
  Si     Si        0.391420669122258    0.755594731403317    0.891074763813316  0.0000
  Si     Si        0.889253226539685    0.735706805561188    0.891247669602199  0.0000
  Si     Si        0.183731669576375    0.742838158563009    0.098586482303734  0.0000
  Si     Si        0.146009881301984    0.252529883988516    0.108230984549304  0.0000
  Si     Si        0.858691697876607    0.241822401092871    0.897954061726213  0.0000
  Si     Si        0.732143640482429    0.595112662231002    0.663611146187920  0.0000
  Si     Si        0.329032732171776    0.600775271448194    0.328972499471797  0.0000
  Si     Si        0.829550963064603    0.888702973952143    0.330193461655710  0.0000
  Si     Si        0.228503067991398    0.892401206624772    0.663912207613842  0.0000
  Si     Si        0.223525701656847    0.094371034816016    0.665979852176888  0.0000
  Si     Si        0.421540430958024    0.398536022075118    0.694502922263493  0.0000
  Si     Si        0.619806941391285    0.391719981424802    0.300033668731755  0.0000
  Si     Si        0.629357444429332    0.592758782294547    0.305905550455981  0.0000
  Si     Si        0.431286016021204    0.600835548978809    0.683835699655911  0.0000
  Si     Si        0.932307414833154    0.890077512892723    0.688636896242781  0.0000
  Si     Si        0.128414181661550    0.894201991899843    0.306166382378228  0.0000
  Si     Si        0.126158202482642    0.095155823016510    0.308017755973329  0.0000
  Si     Si        0.926339744756348    0.092006078739875    0.694362680501103  0.0000
  O3     O3        0.495034103774440    0.222239646376978    0.033959284595792  0.0000
  O2     O2        0.543021624009115    0.774891926215042    0.987802695206740  0.0000
  O2     O2        0.041833866047997    0.716235875161318    0.984422061922293  0.0000
  O2     O2        0.985652193821917    0.262951977146982    0.040320508542219  0.0000
  O3     O3        0.333939424225882    0.158370921967201    0.763490616698841  0.0000
  O3     O3        0.697612090928659    0.158798054072967    0.223773553599597  0.0000
  O2     O2        0.722622086154845    0.819319007965082    0.235927576976293  0.0000
  O2     O2        0.347342824869679    0.832660343606676    0.764924390612246  0.0000
  O2     O2        0.844208915472320    0.659596048675398    0.763767918368424  0.0000
  O2     O2        0.222810662127280    0.667641362193182    0.227339384295299  0.0000
  O3     O3        0.190886063530688    0.331549199197327    0.227515364985783  0.0000
  O3     O3        0.839805880873994    0.317458235685993    0.770220206779530  0.0000
  O3     O3        0.353275231936907    0.344176705101360    0.804629466340266  0.0000
  O2     O2        0.682216305037279    0.329776677170138    0.189504940752560  0.0000
  O2     O2        0.675572282514223    0.652540037460452    0.181899851900920  0.0000
  O2     O2        0.382750752048795    0.662594787413752    0.803954150286074  0.0000
  O2     O2        0.877755330295063    0.828915189247725    0.804653696966304  0.0000
  O2     O2        0.178363352863070    0.835135440999179    0.183864549020261  0.0000
  O2     O2        0.183672071278541    0.159799144868543    0.198143913917234  0.0000
  O2     O2        0.878186065385861    0.148527315680060    0.821665408947531  0.0000
  O3     O3        0.214826782640958    0.254472231343534    0.968357821688661  0.0000
  O2     O2        0.727027253610278    0.233683244384275    0.962982768008547  0.0000
  O2     O2        0.796248114772872    0.738317051377547    0.008949472794909  0.0000
  O2     O2        0.295563562206931    0.752196125795367    0.005239505881582  0.0000
  O3     O3        0.458616474500741    0.381484977306692    0.250552872793924  0.0000
  O3     O3        0.581028930809975    0.381656394516000    0.744869872539081  0.0000
  O2     O2        0.592012086864931    0.607553548416400    0.711386350510522  0.0000
  O2     O2        0.469876010497282    0.603388679188317    0.281149506751653  0.0000
  O2     O2        0.974117332670162    0.871814446943707    0.296207198499241  0.0000
  O2     O2        0.087473885484616    0.866020859054914    0.699517642993996  0.0000
  O2     O2        0.079206483203401    0.117493919566231    0.697332524631579  0.0000
  O3     O3        0.972066080259307    0.119299702617144    0.292476943956880  0.0000
  O3     O3        0.363296170268426    0.368508327469190    0.517564856244868  0.0000
  O3     O3        0.677342664826293    0.364348714536277    0.477853885710118  0.0000
  O2     O2        0.709182224569417    0.618113203090640    0.481296009892226  0.0000
  O2     O2        0.355697531596296    0.629045633148557    0.509163760160367  0.0000
  O2     O2        0.842630911170817    0.876368582689756    0.513488781726881  0.0000
  O2     O2        0.218571294348803    0.878212932610960    0.481455165440720  0.0000
  O2     O2        0.213266725507856    0.108572933508687    0.484355046801701  0.0000
  O3     O3        0.831122534821923    0.109210789511445    0.525126325315577  0.0000
  O3     O3        0.269044284313896    0.504318737682827    0.303441016086820  0.0000
  O3     O3        0.781758970407878    0.496192295064146    0.694750242868909  0.0000
  O3     O3        0.780363106121385    0.985698403357422    0.281288170567401  0.0000
  O2     O2        0.261890670473357    0.993399863483418    0.710139407557834  0.0000
  O2     O2        0.391409812548750    0.501655796436429    0.710965818938426  0.0000
  O2     O2        0.661281689164381    0.491868164883787    0.275266407579323  0.0000
  O2     O2        0.919716163973605    0.990071927405063    0.739821470955299  0.0000
  O2     O2        0.140350385077094    0.994841187577641    0.256941283699482  0.0000
