data_c00515.vasp
_audit_creation_method             Generated by GULP
_audit_author_name                 Salvador R. G. Balestra
_symmetry_space_group_name_H-M     'P 1             '
_symmetry_Int_Tables_number        1

loop_
_symmetry_equiv_pos_site_id
_symmetry_equiv_pos_as_xyz
_cell_length_a                       10.2570
_cell_length_b                       15.2282
_cell_length_c                        8.9329
_cell_angle_alpha                   90.2488
_cell_angle_beta                   104.8735
_cell_angle_gamma                   90.0532

loop_
_atom_site_label
_atom_site_type_symbol
_atom_site_fract_x
_atom_site_fract_y
_atom_site_fract_z
_atom_site_charge
  Ge     Ge        0.351599999999962    0.244500000000016    0.893900000000031  0.0000
  Ge     Ge        0.848690621578709    0.253038723567701    0.885848811675097  0.0000
  Ge     Ge        0.274397637167917    0.398008855586459    0.326240694858278  0.0000
  Ge     Ge        0.188612884969800    0.898111897952970    0.657400907006414  0.0000
  Si     Si        0.648405887004387    0.238630626441826    0.102149075116464  0.0000
  Si     Si        0.647829098873070    0.746216369685794    0.097879569336608  0.0000
  Si     Si        0.353462357364954    0.759736494758201    0.885899791525806  0.0000
  Si     Si        0.848526391160672    0.736855540374823    0.883090084395948  0.0000
  Si     Si        0.141489367895712    0.745625928871315    0.087324755475392  0.0000
  Si     Si        0.141534237298902    0.250716785490167    0.097404983033883  0.0000
  Si     Si        0.675956934672471    0.396969865628077    0.661539678555112  0.0000
  Si     Si        0.681907268348630    0.600880455433335    0.654827970692098  0.0000
  Si     Si        0.284725119878869    0.602575575245907    0.317093520178442  0.0000
  Si     Si        0.785845803815309    0.891616134733617    0.326099808589872  0.0000
  Si     Si        0.174053385947705    0.106608100850756    0.654273314019796  0.0000
  Si     Si        0.776143782336706    0.091085970163667    0.320863100695603  0.0000
  Si     Si        0.379581607603582    0.403530133682762    0.690524744349594  0.0000
  Si     Si        0.580512565721512    0.392751095173394    0.303903676511642  0.0000
  Si     Si        0.587120444410707    0.594437981867544    0.299294331675482  0.0000
  Si     Si        0.385342348096398    0.606746298755730    0.674611936037586  0.0000
  Si     Si        0.886396890872236    0.891191013482441    0.680585543838291  0.0000
  Si     Si        0.087059977251422    0.896460748685308    0.298046050456213  0.0000
  Si     Si        0.075069540058263    0.097404551304483    0.297093339753430  0.0000
  Si     Si        0.877575469191824    0.094742161851268    0.678319592966927  0.0000
  O3     O3        0.520560457527650    0.220032728431515    0.961251549050588  0.0000
  O2     O2        0.507388515361596    0.769719614594500    0.980615316890340  0.0000
  O2     O2        0.003658200682275    0.716941928914875    0.966448197822780  0.0000
  O3     O3        0.020002328198436    0.270053949130992    0.950025556908284  0.0000
  O3     O3        0.287435679047944    0.171160799802193    0.746714240838153  0.0000
  O2     O2        0.665346246673994    0.156751951553094    0.221451598472401  0.0000
  O2     O2        0.680709820799121    0.823281552476560    0.225474932625672  0.0000
  O3     O3        0.320726052259146    0.840775848624626    0.770971551962562  0.0000
  O2     O2        0.801320611553516    0.659689733777653    0.757295037972101  0.0000
  O2     O2        0.180266391918527    0.671804978428206    0.218871682469583  0.0000
  O3     O3        0.153135279044364    0.328373309510815    0.221933152229258  0.0000
  O3     O3        0.792915388370753    0.339226616682578    0.762528588120230  0.0000
  O3     O3        0.330126832070142    0.349318073087436    0.816486942681639  0.0000
  O2     O2        0.632186337304575    0.329011515686194    0.189336933148384  0.0000
  O2     O2        0.641017416377337    0.653393119006338    0.180432973432621  0.0000
  O2     O2        0.328351950087580    0.669381699641527    0.786943465066710  0.0000
  O2     O2        0.829947845016137    0.830860660671755    0.797440091563492  0.0000
  O2     O2        0.123850992964395    0.838470575460769    0.165417073984713  0.0000
  O2     O2        0.117024215915861    0.158482894346712    0.173453602214278  0.0000
  O3     O3        0.814343052909146    0.153901085783651    0.787422706212390  0.0000
  O3     O3        0.278889534596782    0.240976981581403    0.045637858461239  0.0000
  O3     O3        0.780246052564730    0.250360469978928    0.040927981820344  0.0000
  O2     O2        0.764087794257105    0.738063555642340    0.009923580185067  0.0000
  O2     O2        0.258070515435317    0.758446844454316    0.001457175601275  0.0000
  O3     O3        0.424297036461831    0.374493601330454    0.282250437034765  0.0000
  O2     O2        0.533669742789934    0.374401559939892    0.698868955740892  0.0000
  O2     O2        0.541529207054859    0.630108021814624    0.689652603048765  0.0000
  O2     O2        0.430257512122548    0.614171033289105    0.282248769032670  0.0000
  O2     O2        0.933967254009733    0.876884481244711    0.302502224006298  0.0000
  O3     O3        0.038901108058478    0.863925158763181    0.692470586970476  0.0000
  O2     O2        0.030620179347727    0.127540440078212    0.691602969614524  0.0000
  O2     O2        0.917952548410526    0.111739336438525    0.283867847177617  0.0000
  O3     O3        0.287600620539741    0.383417836954935    0.520063056596261  0.0000
  O2     O2        0.662789089225394    0.376676529270854    0.480953820350890  0.0000
  O2     O2        0.673356986126159    0.615251838083251    0.473893906200452  0.0000
  O2     O2        0.298327820306947    0.620381968523255    0.498907328549439  0.0000
  O2     O2        0.793186130669982    0.877165227939565    0.506581865990176  0.0000
  O3     O3        0.183894095341213    0.878400480153661    0.465297834047574  0.0000
  O2     O2        0.160842545571535    0.118933029702145    0.471063447924143  0.0000
  O2     O2        0.788333263828529    0.105619048792321    0.502209891130754  0.0000
  O3     O3        0.230219086303820    0.505353098662980    0.275314733463875  0.0000
  O2     O2        0.711377679129742    0.499327077049742    0.697845140787438  0.0000
  O2     O2        0.733981532686630    0.990134368841229    0.275860246685148  0.0000
  O3     O3        0.215340862755913    0.007477058605515    0.701147555442079  0.0000
  O2     O2        0.372505835033002    0.506978313287867    0.726011499567115  0.0000
  O2     O2        0.604345171305462    0.492963255071805    0.257296726152080  0.0000
  O2     O2        0.880220206768932    0.993066481849667    0.728782841140710  0.0000
  O2     O2        0.102286686670640    0.997778519836874    0.253414462550398  0.0000
