data_c00547.vasp
_audit_creation_method             Generated by GULP
_audit_author_name                 Salvador R. G. Balestra
_symmetry_space_group_name_H-M     'P 1             '
_symmetry_Int_Tables_number        1

loop_
_symmetry_equiv_pos_site_id
_symmetry_equiv_pos_as_xyz
_cell_length_a                       10.2453
_cell_length_b                       15.2419
_cell_length_c                        8.9543
_cell_angle_alpha                   89.7549
_cell_angle_beta                   105.0512
_cell_angle_gamma                   90.1510

loop_
_atom_site_label
_atom_site_type_symbol
_atom_site_fract_x
_atom_site_fract_y
_atom_site_fract_z
_atom_site_charge
  Ge     Ge        0.351599999999962    0.244500000000016    0.893900000000031  0.0000
  Ge     Ge        0.851855345980707    0.255308472246560    0.893561851931520  0.0000
  Ge     Ge        0.686742079725919    0.602337774994012    0.663609283315803  0.0000
  Ge     Ge        0.087571840871738    0.901224150076288    0.302105135642667  0.0000
  Si     Si        0.648524649672600    0.245662184188849    0.106462413911284  0.0000
  Si     Si        0.619036784125648    0.756824258099150    0.094667449041594  0.0000
  Si     Si        0.323633849318478    0.755207737358843    0.886259689784150  0.0000
  Si     Si        0.829406468529244    0.746265677632058    0.893344552007138  0.0000
  Si     Si        0.125623001235493    0.744562423608730    0.098637566165745  0.0000
  Si     Si        0.147018595427260    0.259672606066921    0.104333222264651  0.0000
  Si     Si        0.281175839083114    0.403611854555705    0.326869442990100  0.0000
  Si     Si        0.677869949057821    0.396103491812329    0.662363024108403  0.0000
  Si     Si        0.285176912537633    0.604096026212153    0.325057599768796  0.0000
  Si     Si        0.778591094549645    0.896912204288028    0.322070323323853  0.0000
  Si     Si        0.181212715115908    0.898984437178058    0.663204239394103  0.0000
  Si     Si        0.176705505387151    0.102664557761636    0.665577796144717  0.0000
  Si     Si        0.778390801537123    0.098792611302898    0.330196258727358  0.0000
  Si     Si        0.380359947359679    0.402443372719723    0.683381867405402  0.0000
  Si     Si        0.579417081025477    0.400729796235685    0.303656693970167  0.0000
  Si     Si        0.586903101819856    0.601163517322527    0.301720060484648  0.0000
  Si     Si        0.383051415652671    0.606708299021925    0.678438579987677  0.0000
  Si     Si        0.880591890834876    0.894600554495727    0.676591298407753  0.0000
  Si     Si        0.079620740247616    0.104571771407796    0.307265730256665  0.0000
  Si     Si        0.878799678861511    0.098064156875280    0.685930471827284  0.0000
  O3     O3        0.522420070217455    0.225801446693591    0.964485038426424  0.0000
  O2     O2        0.463416715204127    0.774284435918194    0.010793436690810  0.0000
  O2     O2        0.965886348587266    0.733232064745668    0.027047791346791  0.0000
  O3     O3        0.021768618730623    0.278565735373115    0.960698719579475  0.0000
  O3     O3        0.294734351513057    0.161479962187618    0.763561191644460  0.0000
  O2     O2        0.668562920965509    0.164926477258566    0.228794464880773  0.0000
  O2     O2        0.664679405142404    0.834704222053960    0.217793619708351  0.0000
  O2     O2        0.295169737187942    0.839332739468382    0.773789288138497  0.0000
  O3     O3        0.812162466218871    0.666063593577219    0.776310428597716  0.0000
  O2     O2        0.172345578705465    0.666755223649252    0.222544565428358  0.0000
  O2     O2        0.167583415268204    0.340845694955145    0.224237281515542  0.0000
  O3     O3        0.792281361171133    0.331801613889112    0.751366020156731  0.0000
  O3     O3        0.321450786330019    0.344539673286736    0.797837587476001  0.0000
  O2     O2        0.626982017163916    0.336096942323427    0.189135518180148  0.0000
  O2     O2        0.635067021580678    0.663018406343300    0.181058716491593  0.0000
  O2     O2        0.324500354339731    0.665721611745894    0.792923160738650  0.0000
  O2     O2        0.829654200025644    0.836467818540822    0.798780308333493  0.0000
  O3     O3        0.152852541892304    0.837186475820659    0.182891434070933  0.0000
  O2     O2        0.120725809828177    0.172477525985062    0.192620199597240  0.0000
  O3     O3        0.824111855578556    0.153182780200688    0.805987139338463  0.0000
  O3     O3        0.279556706557628    0.244450058807468    0.045733302010013  0.0000
  O3     O3        0.780653216399428    0.258782182212505    0.045923121954225  0.0000
  O2     O2        0.704663494857235    0.753049928196939    0.969395665902179  0.0000
  O2     O2        0.203578365538942    0.740620274384175    0.966770774024284  0.0000
  O2     O2        0.423344273773737    0.380928124871116    0.291882255914800  0.0000
  O2     O2        0.534382742776140    0.371515001667553    0.697007301464367  0.0000
  O3     O3        0.534325328791332    0.636154755558588    0.690615330514792  0.0000
  O2     O2        0.432379987768222    0.623781904830305    0.299803932815674  0.0000
  O3     O3        0.919515984841908    0.878005533175497    0.283996190894971  0.0000
  O2     O2        0.034868000437348    0.871337807175114    0.684410746469581  0.0000
  O2     O2        0.034713945872674    0.126952017598055    0.702979615087270  0.0000
  O2     O2        0.921350955860292    0.115608991560323    0.293905107729754  0.0000
  O2     O2        0.291165696568813    0.388490726956420    0.507494195175280  0.0000
  O2     O2        0.666488546671236    0.388734262798233    0.479410626467397  0.0000
  O3     O3        0.682752560288179    0.615280146994324    0.470918293862844  0.0000
  O2     O2        0.290515229947402    0.620050367304745    0.504101108173201  0.0000
  O2     O2        0.790185938365254    0.876635003727277    0.502834251902664  0.0000
  O3     O3        0.182568137093034    0.883211034560123    0.488509353934543  0.0000
  O2     O2        0.164613530207527    0.118649559992465    0.484082332686438  0.0000
  O2     O2        0.790921134791973    0.116306384536984    0.510631089138232  0.0000
  O2     O2        0.241582028633511    0.504042723807931    0.279906646166121  0.0000
  O3     O3        0.717352203356997    0.494594832079986    0.716827232044649  0.0000
  O2     O2        0.734210017254243    0.998345505000800    0.287004704071155  0.0000
  O2     O2        0.210600632984247    0.000797351440274    0.707030828118207  0.0000
  O2     O2        0.379836892972916    0.504801821817870    0.727470595269714  0.0000
  O2     O2        0.596556001144243    0.500372700288627    0.249551359095846  0.0000
  O2     O2        0.869533211102888    0.995371068765013    0.723436107339485  0.0000
  O3     O3        0.106106589976609    0.008662911410041    0.251926047964791  0.0000
