data_c00546.vasp
_audit_creation_method             Generated by GULP
_audit_author_name                 Salvador R. G. Balestra
_symmetry_space_group_name_H-M     'P 1             '
_symmetry_Int_Tables_number        1

loop_
_symmetry_equiv_pos_site_id
_symmetry_equiv_pos_as_xyz
_cell_length_a                       10.2307
_cell_length_b                       15.1963
_cell_length_c                        8.9550
_cell_angle_alpha                   90.2367
_cell_angle_beta                   104.9318
_cell_angle_gamma                   90.0000

loop_
_atom_site_label
_atom_site_type_symbol
_atom_site_fract_x
_atom_site_fract_y
_atom_site_fract_z
_atom_site_charge
  Ge     Ge        0.351599999999962    0.244500000000016    0.893900000000031  0.0000
  Ge     Ge        0.851583504652742    0.248732548650674    0.895443283098738  0.0000
  Ge     Ge        0.727673929323470    0.600157213708014    0.655832190991628  0.0000
  Ge     Ge        0.924747143233180    0.889642534154361    0.682064950638197  0.0000
  Si     Si        0.646939467920665    0.231856366889705    0.106846995919348  0.0000
  Si     Si        0.684462953860173    0.744183338008506    0.089531380902470  0.0000
  Si     Si        0.391673662402760    0.756769015628111    0.884974630494491  0.0000
  Si     Si        0.895089473180470    0.735340829374615    0.891314607740474  0.0000
  Si     Si        0.191965849720299    0.741991935139419    0.099511194131470  0.0000
  Si     Si        0.147575329716610    0.255126688899320    0.107531735878561  0.0000
  Si     Si        0.321574938418531    0.394330360558023    0.330654965495240  0.0000
  Si     Si        0.719302833036284    0.394520231684471    0.666118050699241  0.0000
  Si     Si        0.325992706836909    0.595646514681400    0.326636442046097  0.0000
  Si     Si        0.828558521357901    0.887689612715023    0.323449642612917  0.0000
  Si     Si        0.227454998151713    0.893858311572030    0.662283884235831  0.0000
  Si     Si        0.218491699002324    0.098594993643212    0.659966584896390  0.0000
  Si     Si        0.822919393661206    0.091030112321609    0.322620803272961  0.0000
  Si     Si        0.423086481469781    0.397911635561872    0.687644131245422  0.0000
  Si     Si        0.620387074151634    0.392184137578074    0.306012938249837  0.0000
  Si     Si        0.627265034541997    0.591805283328624    0.297486931751485  0.0000
  Si     Si        0.424021560297747    0.603377157544063    0.677126180071063  0.0000
  Si     Si        0.133180289658579    0.893847331100461    0.308045288529705  0.0000
  Si     Si        0.123123160448901    0.094604892283403    0.302576748079544  0.0000
  Si     Si        0.921467748841652    0.098429488107546    0.680116069616656  0.0000
  O3     O3        0.487273134413670    0.219108645732266    0.044556128991130  0.0000
  O2     O2        0.549177072394353    0.772115650274208    0.964637405078229  0.0000
  O2     O2        0.051608367876212    0.722582443620536    0.977556609860600  0.0000
  O3     O3        0.988345105455915    0.270489176023295    0.047359289968295  0.0000
  O3     O3        0.333086168174002    0.160966750270543    0.757912315564522  0.0000
  O2     O2        0.706802433621746    0.150625743485047    0.218085579494593  0.0000
  O2     O2        0.723103413074439    0.823898225993026    0.210697781929384  0.0000
  O2     O2        0.349566247800108    0.837671012193046    0.767177630606963  0.0000
  O3     O3        0.859153926501939    0.664058089347420    0.755707553264011  0.0000
  O2     O2        0.221164512947031    0.660240007789689    0.216530814142416  0.0000
  O2     O2        0.206899495784809    0.331139298197954    0.231990872563572  0.0000
  O3     O3        0.833828491180988    0.331313100707551    0.760159565980215  0.0000
  O3     O3        0.365749490728746    0.344444175269106    0.807748063936979  0.0000
  O2     O2        0.678282108147875    0.323106234966281    0.204212517200204  0.0000
  O2     O2        0.662154485239883    0.653493174216297    0.169890490782381  0.0000
  O2     O2        0.366108018641779    0.664094784634359    0.792987945854474  0.0000
  O3     O3        0.868524215555283    0.831129997525742    0.816195266567540  0.0000
  O2     O2        0.186107871743179    0.831958890414163    0.192237766604528  0.0000
  O2     O2        0.176537564000574    0.159792661258574    0.191232812996554  0.0000
  O3     O3        0.862724286291063    0.152356001888832    0.798578851095663  0.0000
  O3     O3        0.210567188927280    0.255691201834146    0.962929823798390  0.0000
  O3     O3        0.709604293803099    0.238027780890596    0.962478897950783  0.0000
  O2     O2        0.803066867056460    0.722494404851658    0.009330614684724  0.0000
  O2     O2        0.309939676886509    0.754720232782143    0.014716941142592  0.0000
  O2     O2        0.462507136556985    0.371789457265969    0.290142657297386  0.0000
  O2     O2        0.576863518840831    0.367478894905544    0.701525521869244  0.0000
  O3     O3        0.575169624765917    0.634075957292648    0.684683590681747  0.0000
  O2     O2        0.476039821674017    0.611547512887439    0.309344265803922  0.0000
  O2     O2        0.978634247520419    0.871254587615616    0.302685868122242  0.0000
  O3     O3        0.089579216319245    0.859645576029390    0.692758716185163  0.0000
  O2     O2        0.076519884935261    0.127057941997225    0.694125101580201  0.0000
  O2     O2        0.964420029638940    0.113179553476370    0.283548456100645  0.0000
  O2     O2        0.334477112170148    0.380381973939409    0.512106323746630  0.0000
  O2     O2        0.705085007770840    0.385828553924611    0.483094262710385  0.0000
  O3     O3        0.727288915446586    0.608639492506561    0.463284354699832  0.0000
  O2     O2        0.327678472163681    0.615240218912096    0.504193812462998  0.0000
  O3     O3        0.826919284663808    0.867769973513626    0.497296962856726  0.0000
  O2     O2        0.224850217152560    0.881076384831996    0.482029583438995  0.0000
  O2     O2        0.207588259822886    0.110502187773142    0.478463103875354  0.0000
  O2     O2        0.834353544686703    0.110184534815360    0.502490553151929  0.0000
  O2     O2        0.280195077604468    0.495070951841876    0.284110142312229  0.0000
  O3     O3        0.757297557007245    0.493569244561075    0.717844795135776  0.0000
  O2     O2        0.785494258488782    0.989000015781603    0.284115391945036  0.0000
  O2     O2        0.248885529944260    0.996824819702228    0.706663960136600  0.0000
  O2     O2        0.422046049985766    0.501704503878116    0.726684242795310  0.0000
  O2     O2        0.637237532651152    0.490319111079854    0.244874426654660  0.0000
  O3     O3        0.915587794735969    0.997863456142469    0.727646738010953  0.0000
  O2     O2        0.143908095717521    0.994281186708533    0.253543807006251  0.0000
