data_c00578.vasp
_audit_creation_method             Generated by GULP
_audit_author_name                 Salvador R. G. Balestra
_symmetry_space_group_name_H-M     'P 1             '
_symmetry_Int_Tables_number        1

loop_
_symmetry_equiv_pos_site_id
_symmetry_equiv_pos_as_xyz
_cell_length_a                       10.2702
_cell_length_b                       15.2361
_cell_length_c                        8.9118
_cell_angle_alpha                   90.0121
_cell_angle_beta                   104.9362
_cell_angle_gamma                   89.8626

loop_
_atom_site_label
_atom_site_type_symbol
_atom_site_fract_x
_atom_site_fract_y
_atom_site_fract_z
_atom_site_charge
  Ge     Ge        0.351599999999962    0.244500000000016    0.893900000000031  0.0000
  Ge     Ge        0.313326587437929    0.397415657136413    0.320345479006553  0.0000
  Ge     Ge        0.716600095107639    0.389930512482066    0.666963217834369  0.0000
  Ge     Ge        0.226972296871340    0.892036963117939    0.658571125017143  0.0000
  Si     Si        0.651295603149265    0.233101140816328    0.099289972009105  0.0000
  Si     Si        0.670590281526832    0.749005456161851    0.101771388302770  0.0000
  Si     Si        0.378503765265493    0.750854940793753    0.888545016544226  0.0000
  Si     Si        0.870539478944013    0.738103023722343    0.885119415995777  0.0000
  Si     Si        0.165733821677017    0.742756924110420    0.088170105184751  0.0000
  Si     Si        0.140426198930357    0.254055584249578    0.103430779359026  0.0000
  Si     Si        0.851450127710415    0.239493264870391    0.889452854222225  0.0000
  Si     Si        0.728029200585487    0.593183836695739    0.661859751114393  0.0000
  Si     Si        0.326796325225825    0.604319727466093    0.323792117125726  0.0000
  Si     Si        0.826396146832764    0.892608378502907    0.325132131701604  0.0000
  Si     Si        0.218406164273826    0.096760836028018    0.665086850329824  0.0000
  Si     Si        0.821263231510353    0.094533630865991    0.326088089829448  0.0000
  Si     Si        0.414612293032692    0.396578990851536    0.686420912783096  0.0000
  Si     Si        0.613586636528071    0.391544575745581    0.293212038280709  0.0000
  Si     Si        0.626928841044522    0.592969743453549    0.302307765324903  0.0000
  Si     Si        0.425785686612730    0.599690135710071    0.677238422285944  0.0000
  Si     Si        0.924337098401898    0.888798019470615    0.679304326607784  0.0000
  Si     Si        0.124986487908622    0.896914928036562    0.295154307507342  0.0000
  Si     Si        0.119188375379293    0.095867951861921    0.304414931691189  0.0000
  Si     Si        0.921276215173012    0.092801470776541    0.683112780552907  0.0000
  O3     O3        0.494230348278702    0.216265712736710    0.033386292473387  0.0000
  O2     O2        0.516188416007966    0.768487729428250    0.017160620827176  0.0000
  O2     O2        0.014709780117445    0.715916715584623    0.999468812351013  0.0000
  O2     O2        0.980528720428131    0.258328808769188    0.029822731109000  0.0000
  O3     O3        0.328789026790696    0.164070594403573    0.752953210074327  0.0000
  O2     O2        0.707209786515715    0.156647075028414    0.223876009185237  0.0000
  O2     O2        0.716916897778063    0.828742506573615    0.220724098293997  0.0000
  O3     O3        0.355549896048500    0.826958383718778    0.762028479561343  0.0000
  O2     O2        0.836514562713146    0.661205494824806    0.757626217800129  0.0000
  O2     O2        0.219909968062146    0.670364020078379    0.219807692553169  0.0000
  O3     O3        0.180799969419102    0.337067733903333    0.214642935118109  0.0000
  O3     O3        0.835179316397113    0.316623515592380    0.764622304574389  0.0000
  O3     O3        0.355387981497445    0.345552109652865    0.808788991436719  0.0000
  O2     O2        0.674913466590704    0.328000707238779    0.184055372282256  0.0000
  O2     O2        0.685112735088530    0.656469822927319    0.192249157364567  0.0000
  O2     O2        0.380852592048857    0.657457335967037    0.804557838493331  0.0000
  O2     O2        0.868137805864063    0.831180759824369    0.799431153143737  0.0000
  O2     O2        0.168249414861633    0.837642980168177    0.167802617004653  0.0000
  O2     O2        0.178735254154092    0.164606791697099    0.203986529819345  0.0000
  O2     O2        0.862390953086188    0.147381475136422    0.804138348312475  0.0000
  O3     O3        0.215055829603791    0.252181382608079    0.968891924409549  0.0000
  O2     O2        0.721294504485774    0.233232679788492    0.957613629973129  0.0000
  O2     O2        0.758267134367673    0.743088173857678    0.979012600489040  0.0000
  O2     O2        0.254739631966416    0.749300357211019    0.966533887007406  0.0000
  O3     O3        0.452734767355134    0.379429292553751    0.249595778795409  0.0000
  O3     O3        0.573885025469020    0.379429767216038    0.731580019608877  0.0000
  O2     O2        0.586371532466805    0.604740128572168    0.705926977427407  0.0000
  O2     O2        0.467670069037355    0.609101316606829    0.275825756152094  0.0000
  O2     O2        0.972999399533732    0.873045157994495    0.299632234958771  0.0000
  O3     O3        0.074874163874048    0.859120572155596    0.687828118294135  0.0000
  O2     O2        0.074285182025274    0.122243147278450    0.696955445652034  0.0000
  O2     O2        0.963436621207653    0.118415736326286    0.292311305581697  0.0000
  O3     O3        0.348835341655150    0.365164500079977    0.511474476168347  0.0000
  O3     O3        0.676590941243328    0.367957723137441    0.471297595500329  0.0000
  O2     O2        0.706538959196192    0.612077036098704    0.479200515557276  0.0000
  O2     O2        0.351704919948631    0.632995639909133    0.504056786630280  0.0000
  O2     O2        0.830922875233605    0.875491924057391    0.504747823745267  0.0000
  O3     O3        0.222350827221345    0.882923382290252    0.464035310890133  0.0000
  O2     O2        0.206010236259677    0.101165429538708    0.481343128456013  0.0000
  O2     O2        0.830658845527849    0.109594516554686    0.508039182139114  0.0000
  O3     O3        0.269464731751939    0.506927170739789    0.300988321213348  0.0000
  O3     O3        0.780402125486426    0.495073639326129    0.699208039998390  0.0000
  O2     O2        0.783943949043463    0.993331219149940    0.281265023279850  0.0000
  O3     O3        0.258726108572946    0.998592584978221    0.721097643691537  0.0000
  O2     O2        0.382707259433518    0.500073394069732    0.695163100043660  0.0000
  O2     O2        0.650176603965615    0.492100389597859    0.260707490719748  0.0000
  O2     O2        0.919307174360057    0.990543488116638    0.726914306905706  0.0000
  O2     O2        0.131699730404362    0.997879753827693    0.241208193769568  0.0000
