data_c00596.vasp
_audit_creation_method             Generated by GULP
_audit_author_name                 Salvador R. G. Balestra
_symmetry_space_group_name_H-M     'P 1             '
_symmetry_Int_Tables_number        1

loop_
_symmetry_equiv_pos_site_id
_symmetry_equiv_pos_as_xyz
_cell_length_a                       10.3077
_cell_length_b                       15.2849
_cell_length_c                        8.9047
_cell_angle_alpha                   90.5435
_cell_angle_beta                   105.3212
_cell_angle_gamma                   89.5237

loop_
_atom_site_label
_atom_site_type_symbol
_atom_site_fract_x
_atom_site_fract_y
_atom_site_fract_z
_atom_site_charge
  Ge     Ge        0.351599999999962    0.244500000000016    0.893900000000031  0.0000
  Ge     Ge        0.286635995208140    0.394405959070319    0.325667428143395  0.0000
  Ge     Ge        0.699632953740361    0.597522036292269    0.667951905922862  0.0000
  Ge     Ge        0.597766111136658    0.592662832493222    0.291851145628047  0.0000
  Si     Si        0.651549347470527    0.233297752961316    0.097615350265558  0.0000
  Si     Si        0.640453833899074    0.749590359706861    0.088278194814343  0.0000
  Si     Si        0.340882475436376    0.755986314184891    0.886728819704296  0.0000
  Si     Si        0.849717477478466    0.743012531031695    0.888615737309897  0.0000
  Si     Si        0.142612806260220    0.743274313599343    0.103045598017494  0.0000
  Si     Si        0.139707934693317    0.249581702130699    0.100196046638835  0.0000
  Si     Si        0.849627966789099    0.248296490687595    0.886217448436756  0.0000
  Si     Si        0.685916908099942    0.392306217856240    0.666922459105009  0.0000
  Si     Si        0.298141701806375    0.597515831494750    0.315777560278446  0.0000
  Si     Si        0.799913564968709    0.888719892287667    0.321812287032436  0.0000
  Si     Si        0.195573230629726    0.899849151574419    0.666289992844157  0.0000
  Si     Si        0.185277681712165    0.101220116410659    0.659021229345655  0.0000
  Si     Si        0.789273553597825    0.089501883562966    0.319716589471890  0.0000
  Si     Si        0.389208077334955    0.402452795926549    0.691757732264597  0.0000
  Si     Si        0.590368662891104    0.388416558203847    0.303951370796493  0.0000
  Si     Si        0.399489139526569    0.603645897906531    0.680824767230981  0.0000
  Si     Si        0.897086402806235    0.894317969730001    0.680047733299968  0.0000
  Si     Si        0.099981640870795    0.895463389244536    0.307818069723328  0.0000
  Si     Si        0.086955113288676    0.095272760019844    0.300801059798995  0.0000
  Si     Si        0.887123721587441    0.095243027478667    0.677735026956106  0.0000
  O3     O3        0.517926014407382    0.216260048750418    0.965317867417777  0.0000
  O2     O2        0.484656378376305    0.769959567437946    0.007178161240605  0.0000
  O2     O2        0.987194261806477    0.727909844108467    0.019343857127865  0.0000
  O2     O2        0.007127551391710    0.266618018155352    0.960820005383409  0.0000
  O3     O3        0.294575716854646    0.166629428501511    0.751999744962622  0.0000
  O2     O2        0.675539450807843    0.150861051643309    0.214249211272248  0.0000
  O2     O2        0.689988787602096    0.823149608267456    0.222042500336110  0.0000
  O2     O2        0.310842669509629    0.840098477009264    0.774384216458611  0.0000
  O3     O3        0.829241228263351    0.661017038746976    0.773567704600284  0.0000
  O2     O2        0.186095457530933    0.665908793410087    0.226587094301907  0.0000
  O3     O3        0.159195817640412    0.327904821514369    0.224249029509183  0.0000
  O2     O2        0.794991292816835    0.325741127039467    0.766056381166740  0.0000
  O3     O3        0.336547244114204    0.348045353685851    0.814424455786515  0.0000
  O2     O2        0.642949577322370    0.320887423972444    0.195029667154739  0.0000
  O3     O3        0.656870795678241    0.654819751330840    0.164754996420916  0.0000
  O2     O2        0.332890202361601    0.669191994761415    0.781064008044159  0.0000
  O2     O2        0.847704991508884    0.833332209971532    0.797178545905805  0.0000
  O2     O2        0.161555294889657    0.835305002995544    0.195707698212896  0.0000
  O2     O2        0.133098236656604    0.156714038248079    0.181436318308452  0.0000
  O2     O2        0.829094073380946    0.156388946963046    0.792207424830316  0.0000
  O3     O3        0.270895386299674    0.244965062661847    0.037642215864769  0.0000
  O2     O2        0.775827020496449    0.244418307536194    0.022345776067150  0.0000
  O2     O2        0.724645793678996    0.752042037120098    0.962270260961271  0.0000
  O2     O2        0.228689293905001    0.745271224877281    0.978791915377987  0.0000
  O3     O3        0.429456992117118    0.384077066850109    0.260340610890990  0.0000
  O2     O2        0.550677199817868    0.389977342766758    0.725470918700680  0.0000
  O3     O3        0.558957726437612    0.612643782060092    0.736793937727832  0.0000
  O3     O3        0.424453646403204    0.599972872099533    0.243635011404964  0.0000
  O2     O2        0.944271357992029    0.871226051169904    0.288568313814149  0.0000
  O2     O2        0.053893512711209    0.875761096612840    0.698442661892678  0.0000
  O2     O2        0.042058304925375    0.120300029593635    0.695224347371944  0.0000
  O2     O2        0.930443916850424    0.111790494974104    0.285385135637816  0.0000
  O3     O3        0.318934467955760    0.368202805093431    0.519430890386111  0.0000
  O2     O2        0.649581298833036    0.364513048656532    0.485605351501988  0.0000
  O1     O1        0.668316128401744    0.627053410486983    0.477736399141395  0.0000
  O2     O2        0.351240890662999    0.624843402456127    0.497776310488743  0.0000
  O2     O2        0.812091145505116    0.873298978069849    0.503923848675071  0.0000
  O2     O2        0.186071681132760    0.881258290686685    0.485263821127794  0.0000
  O2     O2        0.172135518042251    0.115374852215991    0.476387437991605  0.0000
  O2     O2        0.799582748201566    0.108801880260691    0.500714237220866  0.0000
  O3     O3        0.233975619815283    0.502218220275424    0.301013787676123  0.0000
  O3     O3        0.746547207869163    0.488524062105107    0.687047304629419  0.0000
  O2     O2        0.752139025495544    0.988270505789999    0.278661087612167  0.0000
  O2     O2        0.229827910761534    0.001329540251408    0.705611147020667  0.0000
  O2     O2        0.355707733829346    0.504979834761074    0.708058144949010  0.0000
  O3     O3        0.639339900445006    0.483982556866664    0.274055846193020  0.0000
  O2     O2        0.875345330350456    0.994748205260581    0.724913887993073  0.0000
  O2     O2        0.111588236411753    0.995163875299765    0.256913205765771  0.0000
