data_c00517.vasp
_audit_creation_method             Generated by GULP
_audit_author_name                 Salvador R. G. Balestra
_symmetry_space_group_name_H-M     'P 1             '
_symmetry_Int_Tables_number        1

loop_
_symmetry_equiv_pos_site_id
_symmetry_equiv_pos_as_xyz
_cell_length_a                       10.2074
_cell_length_b                       15.3025
_cell_length_c                        8.9190
_cell_angle_alpha                   90.0003
_cell_angle_beta                   105.0930
_cell_angle_gamma                   90.0001

loop_
_atom_site_label
_atom_site_type_symbol
_atom_site_fract_x
_atom_site_fract_y
_atom_site_fract_z
_atom_site_charge
  Ge     Ge        0.351599999999962    0.244500000000016    0.893900000000031  0.0000
  Ge     Ge        0.851600118465753    0.255865368951842    0.893902994048789  0.0000
  Ge     Ge        0.272204096354995    0.402679620719804    0.324831918381599  0.0000
  Ge     Ge        0.772206737292799    0.097677654613641    0.324821028235564  0.0000
  Si     Si        0.648151364376794    0.248966449125682    0.104209914808070  0.0000
  Si     Si        0.640394056486369    0.750788692926807    0.098851255968124  0.0000
  Si     Si        0.345329528269212    0.761065473233588    0.888691741311384  0.0000
  Si     Si        0.845330001759283    0.739299886558160    0.888691521290348  0.0000
  Si     Si        0.140394749364589    0.749570650295075    0.098851963593831  0.0000
  Si     Si        0.148153612456318    0.251390046778761    0.104211570163721  0.0000
  Si     Si        0.675389772967165    0.398961086192302    0.665492041083922  0.0000
  Si     Si        0.680572183985402    0.602617416463186    0.661535604726633  0.0000
  Si     Si        0.279417173839583    0.604925866739994    0.324959791710010  0.0000
  Si     Si        0.779420633708182    0.895430012383518    0.324967632525770  0.0000
  Si     Si        0.180574793737938    0.897750647259163    0.661543320045429  0.0000
  Si     Si        0.175385751198721    0.101405471673560    0.665486653255545  0.0000
  Si     Si        0.376441851156590    0.405137236790861    0.692322454770705  0.0000
  Si     Si        0.580226289729193    0.399419914119076    0.306878931528814  0.0000
  Si     Si        0.583507122462590    0.600532506594143    0.306477074214680  0.0000
  Si     Si        0.382105180174712    0.606174993642158    0.684020542178479  0.0000
  Si     Si        0.882105095315836    0.894191810501609    0.684026769570864  0.0000
  Si     Si        0.083508347286026    0.899825067010641    0.306485178027479  0.0000
  Si     Si        0.080220330826536    0.100937204124811    0.306869578947158  0.0000
  Si     Si        0.876440346553299    0.095230400849988    0.692315669243324  0.0000
  O3     O3        0.524956162152256    0.232188628580205    0.955173848024703  0.0000
  O2     O2        0.501377475236664    0.776915216604528    0.976454623949316  0.0000
  O2     O2        0.001377221248720    0.723447119028554    0.976453120443465  0.0000
  O3     O3        0.024957744603530    0.268171162702517    0.955177125113708  0.0000
  O3     O3        0.293044825586357    0.160030957910705    0.766439187120359  0.0000
  O3     O3        0.653450305291967    0.169441315483016    0.223024309293098  0.0000
  O2     O2        0.674429196496408    0.824935683498988    0.230367009661328  0.0000
  O2     O2        0.300369010051122    0.840556221528859    0.768278060621638  0.0000
  O2     O2        0.800367558183045    0.659813906760434    0.768265889299753  0.0000
  O2     O2        0.174427165297321    0.675421122573215    0.230361423227313  0.0000
  O3     O3        0.153453114588158    0.330912166191933    0.223034476892748  0.0000
  O3     O3        0.793048279524978    0.340342857718194    0.766461487167094  0.0000
  O3     O3        0.317735618709547    0.345431640923376    0.804510163394053  0.0000
  O2     O2        0.634697723995563    0.340230958055639    0.188844269718617  0.0000
  O2     O2        0.630485663710356    0.658483913984827    0.181002383045320  0.0000
  O2     O2        0.325863386921448    0.669694643170432    0.795529812659552  0.0000
  O2     O2        0.825868979956346    0.830674847645559    0.795544105504672  0.0000
  O2     O2        0.130489380502241    0.841873604820956    0.181012356420727  0.0000
  O2     O2        0.134701632414209    0.160123660974354    0.188839012925974  0.0000
  O3     O3        0.817725178097910    0.154939249167325    0.804491882335110  0.0000
  O3     O3        0.285908715282322    0.244359023909712    0.051584035638838  0.0000
  O3     O3        0.785908776387745    0.256000183092281    0.051587303694997  0.0000
  O2     O2        0.758638013366884    0.742577777169056    0.013297746178401  0.0000
  O2     O2        0.258638609896778    0.757782387940187    0.013298792151696  0.0000
  O3     O3        0.423056657266718    0.380503291029648    0.280794732360592  0.0000
  O2     O2        0.532658730317680    0.377566920460263    0.704224513939368  0.0000
  O2     O2        0.538870263679436    0.629134457844958    0.697289456672998  0.0000
  O2     O2        0.426097727486161    0.618086618481519    0.292772285307816  0.0000
  O2     O2        0.926099726199531    0.882271032504447    0.292778772317151  0.0000
  O2     O2        0.038873972587096    0.871240205389756    0.697305157331304  0.0000
  O2     O2        0.032662914212859    0.122793223690068    0.704239628046191  0.0000
  O3     O3        0.923048807341503    0.119850042626460    0.280759387616474  0.0000
  O3     O3        0.286734496720777    0.389626916789576    0.519086727962184  0.0000
  O2     O2        0.660610100587038    0.378498683857992    0.484346862480190  0.0000
  O2     O2        0.671863755228280    0.621875573721213    0.481102659199089  0.0000
  O2     O2        0.292712640359747    0.617602770703659    0.507977173474485  0.0000
  O2     O2        0.792718396063170    0.882750639520027    0.507983146976729  0.0000
  O2     O2        0.171861461331454    0.878484383281490    0.481111569943948  0.0000
  O2     O2        0.160585203784542    0.121865526735537    0.484339507129611  0.0000
  O3     O3        0.786753623481498    0.110742759662613    0.519075014082786  0.0000
  O3     O3        0.224623522598844    0.509200242615781    0.273901682629645  0.0000
  O2     O2        0.711926131910946    0.500911781983031    0.699188024023850  0.0000
  O3     O3        0.724628268584689    0.991154823745316    0.273914526800105  0.0000
  O2     O2        0.211934389310330    0.999457235386061    0.699183052614605  0.0000
  O2     O2        0.370131359682306    0.506891840897985    0.738526313885073  0.0000
  O2     O2        0.604935198159230    0.499966380714196    0.267144161578083  0.0000
  O2     O2        0.870114636524644    0.993477128600346    0.738513953625749  0.0000
  O2     O2        0.104936595529618    0.000389943327358    0.267152773485360  0.0000
