data_c00573.vasp
_audit_creation_method             Generated by GULP
_audit_author_name                 Salvador R. G. Balestra
_symmetry_space_group_name_H-M     'P 1             '
_symmetry_Int_Tables_number        1

loop_
_symmetry_equiv_pos_site_id
_symmetry_equiv_pos_as_xyz
_cell_length_a                       10.1640
_cell_length_b                       15.2555
_cell_length_c                        8.9580
_cell_angle_alpha                   90.0011
_cell_angle_beta                   105.1300
_cell_angle_gamma                   90.0003

loop_
_atom_site_label
_atom_site_type_symbol
_atom_site_fract_x
_atom_site_fract_y
_atom_site_fract_z
_atom_site_charge
  Ge     Ge        0.351599999999962    0.244500000000016    0.893900000000031  0.0000
  Ge     Ge        0.851603950567700    0.247636390819038    0.893909067434810  0.0000
  Ge     Ge        0.633291541413145    0.597985280380583    0.301989730779588  0.0000
  Ge     Ge        0.133278440404758    0.894125880254339    0.302043184718245  0.0000
  Si     Si        0.648722238056340    0.233852465446765    0.107861207495223  0.0000
  Si     Si        0.661336214733982    0.756003975316899    0.094421656980147  0.0000
  Si     Si        0.364191059147955    0.748294577230346    0.887791084408082  0.0000
  Si     Si        0.864202153844926    0.743861934641837    0.887791666883306  0.0000
  Si     Si        0.161337173618667    0.736128057974734    0.094435538333738  0.0000
  Si     Si        0.148729732197443    0.258242610757846    0.107870568511254  0.0000
  Si     Si        0.326487090635313    0.396213761045296    0.327437286265300  0.0000
  Si     Si        0.724077513024361    0.396829779989347    0.665833457498870  0.0000
  Si     Si        0.729302388955356    0.597626481415779    0.663144026744460  0.0000
  Si     Si        0.324676490341255    0.599830716487824    0.322336164619942  0.0000
  Si     Si        0.824703733235230    0.892274069011906    0.322370692505174  0.0000
  Si     Si        0.229298276443278    0.894536893404916    0.663162012735732  0.0000
  Si     Si        0.224053185394449    0.095319476951104    0.665792855047918  0.0000
  Si     Si        0.826491879307194    0.095895158729802    0.327412408058912  0.0000
  Si     Si        0.422670109369955    0.396952811419286    0.683650469794399  0.0000
  Si     Si        0.627040253362384    0.393948528138226    0.305210653531210  0.0000
  Si     Si        0.423632017104987    0.600166650114123    0.673552014476931  0.0000
  Si     Si        0.923646040745222    0.891988463203114    0.673562992313780  0.0000
  Si     Si        0.127009176296707    0.098159038820100    0.305194742253763  0.0000
  Si     Si        0.922658306877405    0.095192638125202    0.683611038522021  0.0000
  O3     O3        0.487515411387120    0.222549988114244    0.048095336696351  0.0000
  O2     O2        0.500111350520923    0.765646306079859    0.021835222666203  0.0000
  O2     O2        0.000109616050519    0.726502848259093    0.021845662188683  0.0000
  O3     O3        0.987525002612782    0.269555812831693    0.048114528744472  0.0000
  O3     O3        0.336164161683465    0.160390053749693    0.760907851054100  0.0000
  O2     O2        0.707436763013606    0.153409822183835    0.221402547289774  0.0000
  O2     O2        0.703702281376349    0.835041940346178    0.216539473044876  0.0000
  O2     O2        0.338571825157169    0.831982623935914    0.775026004504811  0.0000
  O2     O2        0.838581986049267    0.660183820041704    0.774999927304878  0.0000
  O2     O2        0.203691585215264    0.657065288957266    0.216494622956558  0.0000
  O2     O2        0.207461515739646    0.338663933989488    0.221459050827666  0.0000
  O3     O3        0.836189325960714    0.331772334785417    0.760975422335910  0.0000
  O3     O3        0.366586555987088    0.342573768033251    0.803509006357630  0.0000
  O2     O2        0.685294656538897    0.324419039568711    0.204605311544100  0.0000
  O3     O3        0.694997438428703    0.663978967715083    0.181334965504586  0.0000
  O2     O2        0.376254457494146    0.660219346122630    0.794988286941339  0.0000
  O2     O2        0.876293139717369    0.831941057749145    0.795019996343420  0.0000
  O3     O3        0.195023480388415    0.828133751918229    0.181413823407319  0.0000
  O2     O2        0.185291865055793    0.167660712246235    0.204564836684016  0.0000
  O3     O3        0.866564179896207    0.149579413083742    0.803452311697978  0.0000
  O3     O3        0.208381655934205    0.254771810765111    0.960293063815326  0.0000
  O3     O3        0.708382225285903    0.237344149544286    0.960291761819592  0.0000
  O2     O2        0.738508027300258    0.760449823288421    0.960331992967788  0.0000
  O2     O2        0.238500576195053    0.731710981487289    0.960336971300634  0.0000
  O2     O2        0.468326964107272    0.372130527587909    0.289544883223959  0.0000
  O2     O2        0.580287093115142    0.371812732448257    0.701017177655812  0.0000
  O2     O2        0.578384319959891    0.622137297049772    0.675609166488237  0.0000
  O3     O3        0.466509138191156    0.626061835668088    0.289586796381862  0.0000
  O3     O3        0.966552554298164    0.865956219263568    0.289759959721349  0.0000
  O2     O2        0.078356368139080    0.869977243738260    0.675486847874939  0.0000
  O2     O2        0.080236119684166    0.120391480715772    0.700857158976647  0.0000
  O2     O2        0.968349028530002    0.120078511233769    0.289653075700017  0.0000
  O2     O2        0.336332313696469    0.377995077151361    0.507328766058131  0.0000
  O2     O2        0.711719958124818    0.387814433261364    0.483791207804638  0.0000
  O3     O3        0.734144273919371    0.610349755735386    0.488268258372327  0.0000
  O2     O2        0.329369549276593    0.618408825473330    0.501511634804775  0.0000
  O2     O2        0.829293812968208    0.873795069037068    0.501545588307815  0.0000
  O3     O3        0.234215505662763    0.881865494258016    0.488299930697050  0.0000
  O2     O2        0.211773058517598    0.104237611868554    0.483754763607576  0.0000
  O2     O2        0.836230785985338    0.114060498200225    0.507295548945744  0.0000
  O2     O2        0.293030542913265    0.497606721419864    0.285852514703333  0.0000
  O2     O2        0.763646103366864    0.497097754474324    0.715810752201647  0.0000
  O2     O2        0.793191946886537    0.994495084764975    0.285742911763996  0.0000
  O2     O2        0.263562409357445    0.995063608989550    0.715908443858640  0.0000
  O2     O2        0.410655959594921    0.499639714871871    0.721116912788068  0.0000
  O3     O3        0.641235624656357    0.490596833592296    0.243927259645528  0.0000
  O2     O2        0.910779815142757    0.992513424582161    0.721201903380368  0.0000
  O3     O3        0.141033633018702    0.001503502387317    0.243855122385583  0.0000
