data_c00571.vasp
_audit_creation_method             Generated by GULP
_audit_author_name                 Salvador R. G. Balestra
_symmetry_space_group_name_H-M     'P 1             '
_symmetry_Int_Tables_number        1

loop_
_symmetry_equiv_pos_site_id
_symmetry_equiv_pos_as_xyz
_cell_length_a                       10.2078
_cell_length_b                       15.2067
_cell_length_c                        8.9980
_cell_angle_alpha                   89.8699
_cell_angle_beta                   105.2738
_cell_angle_gamma                   89.9018

loop_
_atom_site_label
_atom_site_type_symbol
_atom_site_fract_x
_atom_site_fract_y
_atom_site_fract_z
_atom_site_charge
  Ge     Ge        0.351599999999962    0.244500000000016    0.893900000000031  0.0000
  Ge     Ge        0.851470766045871    0.253851053120353    0.892136883757166  0.0000
  Ge     Ge        0.626734893585573    0.604598403795209    0.303562573281197  0.0000
  Ge     Ge        0.415110027693109    0.604625712057620    0.676638886737736  0.0000
  Si     Si        0.649543154795267    0.241196645387400    0.106143993108004  0.0000
  Si     Si        0.657824935862386    0.762525238131723    0.092218147894335  0.0000
  Si     Si        0.359792475961127    0.756484795053412    0.890212575118948  0.0000
  Si     Si        0.859471383609539    0.747870912685992    0.885123771717627  0.0000
  Si     Si        0.155106136559761    0.745921766972279    0.095834605036631  0.0000
  Si     Si        0.148540689908097    0.259677547948379    0.106221693311791  0.0000
  Si     Si        0.323690771925529    0.400614826129828    0.323140759962962  0.0000
  Si     Si        0.717804045429791    0.400814624355537    0.661749270590168  0.0000
  Si     Si        0.721732056649837    0.604340826769713    0.660495928639056  0.0000
  Si     Si        0.316785284157912    0.604949971758860    0.321131806592291  0.0000
  Si     Si        0.821651363265375    0.899721436990087    0.321568225016164  0.0000
  Si     Si        0.218994558367901    0.895622322525148    0.657909401326179  0.0000
  Si     Si        0.221533345831889    0.097620923846908    0.665195692407798  0.0000
  Si     Si        0.824353510522845    0.102219604018448    0.328350651501776  0.0000
  Si     Si        0.419782567588569    0.396687337287768    0.679686058571426  0.0000
  Si     Si        0.623256371983226    0.400133518895876    0.303362544461349  0.0000
  Si     Si        0.918347197275397    0.895968496156942    0.673055211390964  0.0000
  Si     Si        0.123819631070485    0.900025835174697    0.303696530790390  0.0000
  Si     Si        0.125066214446124    0.101153202878610    0.308335616707486  0.0000
  Si     Si        0.920867462532741    0.100411054197415    0.682765598489488  0.0000
  O3     O3        0.489403699128008    0.227168806133426    0.046869408255633  0.0000
  O2     O2        0.498810472283909    0.778237526582516    0.016374233326204  0.0000
  O2     O2        0.997146954213241    0.731721153055271    0.016014920846886  0.0000
  O3     O3        0.988454177061691    0.274253826332187    0.044983204799140  0.0000
  O3     O3        0.336696872467291    0.157390913722228    0.767137780214902  0.0000
  O2     O2        0.709376511382779    0.162001545841755    0.222157196632774  0.0000
  O2     O2        0.706037001121468    0.840566362382962    0.214401658455780  0.0000
  O2     O2        0.333411483204618    0.830756933502299    0.756535938776146  0.0000
  O2     O2        0.835950370393121    0.663212409319442    0.774521029215350  0.0000
  O2     O2        0.201919235114691    0.662261269374138    0.205391534613808  0.0000
  O2     O2        0.207816573463288    0.339813354320882    0.220161544111713  0.0000
  O3     O3        0.834013984264889    0.338856481106852    0.759849674727934  0.0000
  O3     O3        0.360074948602291    0.339234999548345    0.792653247682400  0.0000
  O2     O2        0.682384576498682    0.332658018171408    0.200529554020635  0.0000
  O3     O3        0.683573944787252    0.669857770156186    0.178732249978173  0.0000
  O3     O3        0.365614257695841    0.662301968845119    0.815691727838219  0.0000
  O2     O2        0.863871616285923    0.836370855505017    0.789285021090873  0.0000
  O2     O2        0.178819649934815    0.836068866874538    0.193247485537007  0.0000
  O2     O2        0.180555963323366    0.167219548887380    0.200299028708343  0.0000
  O3     O3        0.866010054483989    0.155457057704163    0.802025429379486  0.0000
  O3     O3        0.209728944941706    0.255417863595602    0.961269890095996  0.0000
  O3     O3        0.709773780515910    0.244461428701686    0.960175938373202  0.0000
  O2     O2        0.735657100214461    0.762142151088601    0.960064163376998  0.0000
  O2     O2        0.236811524193345    0.755312865540494    0.968684708277369  0.0000
  O2     O2        0.466495869888505    0.375610932677084    0.289952456887676  0.0000
  O2     O2        0.575460797957463    0.368842015578791    0.691426969994494  0.0000
  O3     O3        0.574911227732645    0.636541560577837    0.670035441435169  0.0000
  O3     O3        0.463457731062838    0.632707235843949    0.303981880146382  0.0000
  O2     O2        0.965422684025140    0.880808944896382    0.285811955739309  0.0000
  O2     O2        0.074996778649879    0.872691876986698    0.689210317338668  0.0000
  O2     O2        0.079310496712605    0.122117532373327    0.702784069949634  0.0000
  O2     O2        0.966293619437938    0.120985767928537    0.288297703735343  0.0000
  O2     O2        0.331107272947043    0.386323299637598    0.502492761565595  0.0000
  O2     O2        0.710194126804552    0.393963546746646    0.480963043092554  0.0000
  O3     O3        0.732230053810961    0.614441017275526    0.487258348891024  0.0000
  O3     O3        0.308487022243713    0.619752854138820    0.494294214298479  0.0000
  O2     O2        0.831166072231428    0.876280702721721    0.498964556174892  0.0000
  O2     O2        0.210265656916311    0.881702289916106    0.478321964578150  0.0000
  O2     O2        0.208360833378836    0.114669475696002    0.484895817804333  0.0000
  O2     O2        0.837526331155771    0.122839212653094    0.507218209931823  0.0000
  O2     O2        0.290387590674650    0.502140868632050    0.277660501881781  0.0000
  O2     O2        0.743909747683856    0.502257744818750    0.713027452735238  0.0000
  O2     O2        0.781225250215699    0.001406195726242    0.290279607959129  0.0000
  O2     O2        0.258877429873748    0.995734051188202    0.705351225293529  0.0000
  O3     O3        0.414526469512715    0.496644849050906    0.731157274483019  0.0000
  O3     O3        0.632449384106645    0.497507434726503    0.241815706913912  0.0000
  O2     O2        0.903136620177574    0.997327090540371    0.715187920429071  0.0000
  O2     O2        0.143673636107580    0.000926142143254    0.257393185439013  0.0000
