data_c00512.vasp
_audit_creation_method             Generated by GULP
_audit_author_name                 Salvador R. G. Balestra
_symmetry_space_group_name_H-M     'P 1             '
_symmetry_Int_Tables_number        1

loop_
_symmetry_equiv_pos_site_id
_symmetry_equiv_pos_as_xyz
_cell_length_a                       10.2568
_cell_length_b                       15.2324
_cell_length_c                        8.9282
_cell_angle_alpha                   89.8507
_cell_angle_beta                   104.8866
_cell_angle_gamma                   90.0713

loop_
_atom_site_label
_atom_site_type_symbol
_atom_site_fract_x
_atom_site_fract_y
_atom_site_fract_z
_atom_site_charge
  Ge     Ge        0.351599999999962    0.244500000000016    0.893900000000031  0.0000
  Ge     Ge        0.848893330615701    0.253118989870929    0.885414921583180  0.0000
  Ge     Ge        0.273200127368285    0.402098352473550    0.324130097786636  0.0000
  Ge     Ge        0.687556445546062    0.602379743232305    0.654924107732749  0.0000
  Si     Si        0.648528522886853    0.242467182441843    0.101831961782322  0.0000
  Si     Si        0.641416763236112    0.752447243589526    0.088402651670972  0.0000
  Si     Si        0.348643759374213    0.762666472546382    0.883034613789916  0.0000
  Si     Si        0.853461486385322    0.739824472429699    0.886665311347224  0.0000
  Si     Si        0.148176915530048    0.751559523529107    0.098071182597429  0.0000
  Si     Si        0.142111321724714    0.254442863134509    0.098101413634807  0.0000
  Si     Si        0.674863004449345    0.395714903125922    0.657319709335482  0.0000
  Si     Si        0.285058560259280    0.605304499976711    0.324631063374592  0.0000
  Si     Si        0.786857758754264    0.894411395581679    0.319780890578950  0.0000
  Si     Si        0.182951700834525    0.899584260242978    0.657316927226441  0.0000
  Si     Si        0.174940108695875    0.104234821283975    0.659373712594268  0.0000
  Si     Si        0.778208418915982    0.095080574833237    0.322954670716682  0.0000
  Si     Si        0.380572872331312    0.404704832186200    0.688592944702690  0.0000
  Si     Si        0.576983934380785    0.397612751543183    0.297586800756438  0.0000
  Si     Si        0.586109598201989    0.598556283511958    0.294921209824460  0.0000
  Si     Si        0.387031199960482    0.608367791412516    0.679467406883258  0.0000
  Si     Si        0.885578547365647    0.892773448439484    0.676355823943148  0.0000
  Si     Si        0.088355336606620    0.901222060787161    0.302399407438689  0.0000
  Si     Si        0.078439542272988    0.101977463219757    0.303413375299921  0.0000
  Si     Si        0.876925893264929    0.095355823991161    0.680403227718625  0.0000
  O3     O3        0.521349369288775    0.222468131512227    0.961253023428303  0.0000
  O2     O2        0.504024173267835    0.780978514876752    0.967375112192507  0.0000
  O2     O2        0.007012200921559    0.727374707894012    0.981784187921085  0.0000
  O3     O3        0.019811270462589    0.271834992133235    0.950135443838742  0.0000
  O3     O3        0.290588412493284    0.163999189481660    0.758854242012999  0.0000
  O2     O2        0.667578181348838    0.160873229084437    0.222807475945246  0.0000
  O2     O2        0.679315228772811    0.827876493214650    0.218256020129675  0.0000
  O2     O2        0.302533690070330    0.842226276528187    0.762360271259599  0.0000
  O3     O3        0.819476004441672    0.661645332549201    0.765352734004508  0.0000
  O2     O2        0.182812009558951    0.676318202025394    0.227874013495448  0.0000
  O3     O3        0.151633624295412    0.332970890947311    0.219798210401577  0.0000
  O3     O3        0.790126668938061    0.332430460472451    0.748399669316206  0.0000
  O3     O3        0.326738976324683    0.347576711425875    0.808934905436644  0.0000
  O2     O2        0.630146630867061    0.333100281820233    0.185795221126116  0.0000
  O2     O2        0.623808623645127    0.659472222804341    0.166079529268310  0.0000
  O2     O2        0.328717572364371    0.669940128689138    0.793163730601195  0.0000
  O2     O2        0.830750222867879    0.831816757717710    0.792673609847449  0.0000
  O2     O2        0.141805315153976    0.844274594205971    0.181033791490930  0.0000
  O2     O2        0.121122607052164    0.162914496536054    0.179696124305259  0.0000
  O3     O3        0.817273769019758    0.151868666848660    0.794904486362229  0.0000
  O3     O3        0.279332764822683    0.245217339155602    0.046206945102967  0.0000
  O3     O3        0.780136151257762    0.255337650256356    0.040244726450292  0.0000
  O2     O2        0.757837112076877    0.739033200753163    0.002195414331377  0.0000
  O2     O2        0.263846629580773    0.759140956772895    0.009324683535763  0.0000
  O3     O3        0.423282374777008    0.374687550157321    0.283862084939239  0.0000
  O2     O2        0.530680411129499    0.370383059557324    0.689139994049225  0.0000
  O3     O3        0.537227311891641    0.639050204125183    0.685225122702221  0.0000
  O2     O2        0.435512411355525    0.619613435453475    0.306350720617293  0.0000
  O2     O2        0.930837309474648    0.881211516787107    0.282752037124073  0.0000
  O2     O2        0.042931810708482    0.872123712740413    0.694882903461685  0.0000
  O2     O2        0.032934343460729    0.123986413727678    0.699849434124574  0.0000
  O2     O2        0.919937442115795    0.113845240956033    0.284253883264216  0.0000
  O3     O3        0.283482924134366    0.391849774784742    0.518467474114572  0.0000
  O2     O2        0.663917181290348    0.387669187389352    0.474416147177870  0.0000
  O3     O3        0.686398532456864    0.613730302634382    0.461808366065675  0.0000
  O2     O2        0.290499660856647    0.615952778768172    0.506063864573248  0.0000
  O2     O2        0.800603874986094    0.874058115977951    0.500529031205580  0.0000
  O2     O2        0.172854432044396    0.879861944830483    0.477345310470570  0.0000
  O2     O2        0.160399822274885    0.125500266832761    0.478090417777265  0.0000
  O2     O2        0.791788038936430    0.112145737951924    0.503810337182202  0.0000
  O3     O3        0.232584670273680    0.509437767410951    0.268621052578423  0.0000
  O3     O3        0.712159473155519    0.494476326694743    0.710700813368698  0.0000
  O2     O2        0.734887035959643    0.994108596305853    0.281138595918349  0.0000
  O2     O2        0.212955606708752    0.002005989648109    0.692885700119747  0.0000
  O2     O2        0.387635296865648    0.507398455495702    0.735259753598200  0.0000
  O2     O2        0.592687269459640    0.497479316730723    0.242253008769697  0.0000
  O2     O2        0.867998807707493    0.993072954936756    0.721513388464506  0.0000
  O2     O2        0.109587908335985    0.002430748083645    0.263820823099370  0.0000
