data_c00572.vasp
_audit_creation_method             Generated by GULP
_audit_author_name                 Salvador R. G. Balestra
_symmetry_space_group_name_H-M     'P 1             '
_symmetry_Int_Tables_number        1

loop_
_symmetry_equiv_pos_site_id
_symmetry_equiv_pos_as_xyz
_cell_length_a                       10.1976
_cell_length_b                       15.1932
_cell_length_c                        8.9801
_cell_angle_alpha                   90.4753
_cell_angle_beta                   105.1880
_cell_angle_gamma                   89.8845

loop_
_atom_site_label
_atom_site_type_symbol
_atom_site_fract_x
_atom_site_fract_y
_atom_site_fract_z
_atom_site_charge
  Ge     Ge        0.351599999999962    0.244500000000016    0.893900000000031  0.0000
  Ge     Ge        0.851520347180186    0.264893990428807    0.897224636023812  0.0000
  Ge     Ge        0.580791796331680    0.602025357822016    0.305450120227956  0.0000
  Ge     Ge        0.872639480380797    0.900275570989957    0.683119451093797  0.0000
  Si     Si        0.646892514649931    0.245824288197317    0.105230919295820  0.0000
  Si     Si        0.637420889818658    0.755103195542245    0.094126575776128  0.0000
  Si     Si        0.341204071325122    0.763097125462522    0.888486588911227  0.0000
  Si     Si        0.841897670101598    0.743443628383160    0.891412977552091  0.0000
  Si     Si        0.138285216577887    0.747936170039829    0.097707659329056  0.0000
  Si     Si        0.150547338350707    0.253424193198483    0.108663040065956  0.0000
  Si     Si        0.274103736453824    0.403084977716709    0.333634497719789  0.0000
  Si     Si        0.672417331954182    0.401487370116687    0.666835251522346  0.0000
  Si     Si        0.672698957480552    0.609316848449879    0.660596419102709  0.0000
  Si     Si        0.269250414395415    0.601936493494452    0.322736164677552  0.0000
  Si     Si        0.774689478829387    0.899260912346848    0.323301755295795  0.0000
  Si     Si        0.175459550768940    0.898846406753395    0.662009174366174  0.0000
  Si     Si        0.173005710515046    0.105267858181158    0.661427168745662  0.0000
  Si     Si        0.777854986724413    0.098935617788014    0.323112502347543  0.0000
  Si     Si        0.374315966786591    0.405064618383421    0.690424457752346  0.0000
  Si     Si        0.579553241664571    0.397575784034847    0.315473726829421  0.0000
  Si     Si        0.372627179963350    0.608898541844539    0.679433873251543  0.0000
  Si     Si        0.081371213124039    0.898864494836467    0.310402639311375  0.0000
  Si     Si        0.079170658058822    0.101058614741640    0.306608559922902  0.0000
  Si     Si        0.875302066854917    0.106371315341166    0.682925149841472  0.0000
  O3     O3        0.523908243285613    0.226012642683877    0.958324978059241  0.0000
  O2     O2        0.499684787631660    0.777838421242761    0.966586246645335  0.0000
  O2     O2        0.002036818401349    0.730821915995266    0.964530433172886  0.0000
  O3     O3        0.024881819687556    0.275781466330508    0.966689670150035  0.0000
  O3     O3        0.294820612524088    0.161053745332847    0.762132346657843  0.0000
  O2     O2        0.666263511261426    0.164765591898520    0.224768285594890  0.0000
  O2     O2        0.664675414885795    0.833366044296395    0.220326617486295  0.0000
  O2     O2        0.296853699507978    0.844473427041553    0.773108792388496  0.0000
  O2     O2        0.794141145926043    0.660657871944591    0.777520875315637  0.0000
  O2     O2        0.159935744362003    0.667454365878417    0.217495471276591  0.0000
  O2     O2        0.170237613276615    0.332257332853091    0.235016552124778  0.0000
  O3     O3        0.796490284738816    0.353957121923175    0.779717663538580  0.0000
  O3     O3        0.317073349826130    0.345595073266232    0.803059519433375  0.0000
  O2     O2        0.613416473176076    0.332646066155423    0.191088032172505  0.0000
  O3     O3        0.627616463822646    0.661678484987344    0.168557035978986  0.0000
  O2     O2        0.314713835273746    0.671572326736140    0.791886290669892  0.0000
  O3     O3        0.809570442367011    0.834045773856674    0.800671700096552  0.0000
  O2     O2        0.128888712859953    0.838413426902447    0.188285282547095  0.0000
  O2     O2        0.127191171045383    0.161651421515356    0.186663531361639  0.0000
  O3     O3        0.811701768568716    0.170859360977336    0.784755290686838  0.0000
  O3     O3        0.283753055174304    0.242088076277825    0.049080225954894  0.0000
  O3     O3        0.782025758659116    0.261672811160207    0.051202406987168  0.0000
  O2     O2        0.765470911689589    0.747312285656804    0.024515013329174  0.0000
  O2     O2        0.262363243745261    0.758540337002317    0.020804076406427  0.0000
  O2     O2        0.418130630045632    0.397669151375785    0.293882326436631  0.0000
  O2     O2        0.533414386910469    0.380219104299839    0.714919945789366  0.0000
  O2     O2        0.530183211192263    0.632142815144084    0.698934894339810  0.0000
  O3     O3        0.409103918807917    0.613856410711280    0.278544433367422  0.0000
  O2     O2        0.925959586951348    0.878949411132393    0.307377739658167  0.0000
  O3     O3        0.035935144709682    0.866781210845022    0.691542333707311  0.0000
  O2     O2        0.031627096016922    0.135485282343444    0.696923689322043  0.0000
  O2     O2        0.921619424117225    0.120915133303977    0.290027917658520  0.0000
  O2     O2        0.292074005102431    0.384783703903575    0.513974065507855  0.0000
  O2     O2        0.655912906479084    0.369428605998748    0.490210995935222  0.0000
  O3     O3        0.665258615218409    0.637852750366835    0.488339382971163  0.0000
  O2     O2        0.288229720044177    0.624690758337651    0.503285543976132  0.0000
  O3     O3        0.771379747229918    0.888136880041824    0.497909933630889  0.0000
  O2     O2        0.174483023933579    0.881916317336796    0.483212494995558  0.0000
  O2     O2        0.165177216406438    0.120458664394680    0.481301559098457  0.0000
  O2     O2        0.789221084115770    0.109608551066499    0.504189477888220  0.0000
  O2     O2        0.215208242885967    0.501432744331034    0.291704732055540  0.0000
  O2     O2        0.699638820839459    0.505498386177705    0.675924603620797  0.0000
  O2     O2        0.733921428382828    0.999331734387374    0.269830304807067  0.0000
  O2     O2        0.195647348884113    0.002263026963172    0.700863665845349  0.0000
  O2     O2        0.358561957713942    0.508064244176776    0.727769038899346  0.0000
  O3     O3        0.624140527917863    0.494184743067965    0.281737526772852  0.0000
  O3     O3        0.871390510845598    0.007981918188776    0.743185572100540  0.0000
  O2     O2        0.098030852033857    0.999525470877688    0.262395227600801  0.0000
