data_c00522.vasp
_audit_creation_method             Generated by GULP
_audit_author_name                 Salvador R. G. Balestra
_symmetry_space_group_name_H-M     'P 1             '
_symmetry_Int_Tables_number        1

loop_
_symmetry_equiv_pos_site_id
_symmetry_equiv_pos_as_xyz
_cell_length_a                       10.1946
_cell_length_b                       15.2460
_cell_length_c                        8.9525
_cell_angle_alpha                   90.1805
_cell_angle_beta                   104.9850
_cell_angle_gamma                   89.9817

loop_
_atom_site_label
_atom_site_type_symbol
_atom_site_fract_x
_atom_site_fract_y
_atom_site_fract_z
_atom_site_charge
  Ge     Ge        0.351599999999962    0.244500000000016    0.893900000000031  0.0000
  Ge     Ge        0.844419351687990    0.250116241092596    0.885861835916031  0.0000
  Ge     Ge        0.315589290896479    0.395298117371572    0.329634569319531  0.0000
  Ge     Ge        0.922756277137665    0.892017924721426    0.678348855189463  0.0000
  Si     Si        0.645951763814212    0.234862404290857    0.102817478378407  0.0000
  Si     Si        0.685610563678025    0.746135636672896    0.091600221554944  0.0000
  Si     Si        0.391214594941019    0.758600118144541    0.882227044383804  0.0000
  Si     Si        0.889586946428002    0.735555041101133    0.885358137277288  0.0000
  Si     Si        0.186277288532293    0.744576347749635    0.091487361024461  0.0000
  Si     Si        0.142059182772040    0.253254683278583    0.100950293152382  0.0000
  Si     Si        0.720740683988502    0.399276539351292    0.660821311294121  0.0000
  Si     Si        0.723742398482532    0.601567427701774    0.653495523846819  0.0000
  Si     Si        0.321272676395948    0.599554183915456    0.320169943459770  0.0000
  Si     Si        0.824744675450567    0.892109856213227    0.318856105242811  0.0000
  Si     Si        0.226975094952632    0.894743970957354    0.656808134542888  0.0000
  Si     Si        0.217606846646925    0.099805027850243    0.656809812787343  0.0000
  Si     Si        0.822869146614207    0.092586763172054    0.315519655202547  0.0000
  Si     Si        0.422588658790047    0.400396111450204    0.692349228232859  0.0000
  Si     Si        0.623058523069805    0.393836209357096    0.303016211286477  0.0000
  Si     Si        0.624979456194143    0.594719621097659    0.298658135847075  0.0000
  Si     Si        0.424266326553870    0.604190984704930    0.675686084823788  0.0000
  Si     Si        0.130881213910258    0.894906139101084    0.303873469309372  0.0000
  Si     Si        0.124753941799504    0.095475080303483    0.299758238803348  0.0000
  Si     Si        0.918910146857935    0.098383960866252    0.675415206666887  0.0000
  O3     O3        0.485710302063103    0.218997554884381    0.047490007682698  0.0000
  O2     O2        0.548987526287150    0.771096914569204    0.965335311905986  0.0000
  O2     O2        0.048499388338557    0.721350161430134    0.964578543224303  0.0000
  O3     O3        0.981316809102674    0.263346598064856    0.040188758872663  0.0000
  O3     O3        0.332087930224689    0.162186253424293    0.756181820929776  0.0000
  O2     O2        0.708965127706751    0.155459571987306    0.216140999962463  0.0000
  O2     O2        0.719127386795408    0.827257962639846    0.209318894782646  0.0000
  O2     O2        0.349682561414757    0.839754830192746    0.764877485234411  0.0000
  O2     O2        0.843925800618677    0.661507677757133    0.752762232752503  0.0000
  O2     O2        0.216851017633685    0.667785171500662    0.217657328540244  0.0000
  O3     O3        0.190618956381384    0.329327343478506    0.225028193088100  0.0000
  O3     O3        0.834686079085286    0.339177768554020    0.764132049809569  0.0000
  O3     O3        0.376132532568430    0.345811526327905    0.819548515300383  0.0000
  O2     O2        0.680234102413730    0.327349268657759    0.195354606047745  0.0000
  O2     O2        0.671625458384977    0.656500317041446    0.179222419668642  0.0000
  O2     O2        0.367337583146704    0.667067465078812    0.788115565351880  0.0000
  O3     O3        0.863887163507680    0.829651936969576    0.806120675461703  0.0000
  O2     O2        0.175027764542087    0.835593610103590    0.178298279261282  0.0000
  O2     O2        0.179342507261345    0.158816832513150    0.186576722903981  0.0000
  O3     O3        0.851229901362704    0.156843814738874    0.780185545111481  0.0000
  O3     O3        0.208000505018179    0.257303135072632    0.958378856926709  0.0000
  O3     O3        0.701544372883603    0.238848344364648    0.952423798950249  0.0000
  O2     O2        0.807056665123941    0.727972310124533    0.013674493386518  0.0000
  O2     O2        0.306686042458910    0.756254916581502    0.009410553341601  0.0000
  O3     O3        0.465012517713684    0.374285037635617    0.280555539090484  0.0000
  O2     O2        0.578195238738316    0.376562581827313    0.698780133842603  0.0000
  O2     O2        0.581710572646396    0.627165500356824    0.690008713934587  0.0000
  O2     O2        0.467392295856179    0.610201791166155    0.285483367826648  0.0000
  O2     O2        0.976713069729951    0.874218665271620    0.303978552206859  0.0000
  O3     O3        0.087779294597689    0.861827860958748    0.687083475916323  0.0000
  O2     O2        0.075113563462273    0.127219353093933    0.692230026232838  0.0000
  O2     O2        0.965647711050774    0.114716173973558    0.279109715248020  0.0000
  O3     O3        0.330633528364339    0.377546312723503    0.522810544872755  0.0000
  O2     O2        0.705206035464401    0.379453483722765    0.480428562616588  0.0000
  O2     O2        0.713170816484475    0.616110423441446    0.472317333610141  0.0000
  O2     O2        0.335705317860552    0.619289837190460    0.501050641244185  0.0000
  O3     O3        0.821450315420665    0.876643619609435    0.493414794492424  0.0000
  O2     O2        0.225346542860867    0.879524848258503    0.476848565893161  0.0000
  O2     O2        0.207925647190083    0.113970703628180    0.475877009051416  0.0000
  O2     O2        0.834437456459465    0.105739059570955    0.496420793757854  0.0000
  O3     O3        0.267224568418168    0.502391371817374    0.282107393487353  0.0000
  O2     O2        0.759271547958014    0.500790902715088    0.697558458797573  0.0000
  O2     O2        0.782059236908476    0.992071716695907    0.268965670781747  0.0000
  O2     O2        0.248130260166830    0.997763483830342    0.698659539650134  0.0000
  O2     O2        0.410046862455398    0.504117815642499    0.724794768362610  0.0000
  O2     O2        0.646139035061539    0.493761490330485    0.254753222757977  0.0000
  O3     O3        0.916412179553705    0.999376807958521    0.732104321371277  0.0000
  O2     O2        0.145753212119171    0.995256593342260    0.253851876197170  0.0000
