data_c00526.vasp
_audit_creation_method             Generated by GULP
_audit_author_name                 Salvador R. G. Balestra
_symmetry_space_group_name_H-M     'P 1             '
_symmetry_Int_Tables_number        1

loop_
_symmetry_equiv_pos_site_id
_symmetry_equiv_pos_as_xyz
_cell_length_a                       10.2782
_cell_length_b                       15.1706
_cell_length_c                        8.9334
_cell_angle_alpha                   90.2539
_cell_angle_beta                   104.7062
_cell_angle_gamma                   90.0684

loop_
_atom_site_label
_atom_site_type_symbol
_atom_site_fract_x
_atom_site_fract_y
_atom_site_fract_z
_atom_site_charge
  Ge     Ge        0.351599999999962    0.244500000000016    0.893900000000031  0.0000
  Ge     Ge        0.855869103763068    0.258207678842116    0.898960814959699  0.0000
  Ge     Ge        0.675187864467714    0.397151066728804    0.658519583248667  0.0000
  Ge     Ge        0.675048380475033    0.609778477979832    0.655207347536935  0.0000
  Si     Si        0.642531888964988    0.244147529124820    0.099328856160816  0.0000
  Si     Si        0.615454896619480    0.758215362630447    0.091269765014929  0.0000
  Si     Si        0.321663498999142    0.759233500972472    0.886825831459384  0.0000
  Si     Si        0.827380904173582    0.748661808147370    0.889508881910719  0.0000
  Si     Si        0.120227813856775    0.745008054277531    0.101513814023057  0.0000
  Si     Si        0.151340177376843    0.253894677020211    0.110009723304225  0.0000
  Si     Si        0.275528451740111    0.401625727006015    0.337003822145866  0.0000
  Si     Si        0.274041785590722    0.602017613489969    0.324927068979579  0.0000
  Si     Si        0.777151449642124    0.897272726884483    0.325261437749668  0.0000
  Si     Si        0.172196227993741    0.899847689563733    0.662305710253754  0.0000
  Si     Si        0.172323907813236    0.103971239139453    0.663826627478628  0.0000
  Si     Si        0.777439264652860    0.100743247574689    0.327803615576550  0.0000
  Si     Si        0.377133803441208    0.403206753937060    0.688744307042065  0.0000
  Si     Si        0.573144419740635    0.399857784680516    0.299303066423094  0.0000
  Si     Si        0.572928037397368    0.600880367450096    0.293489225757420  0.0000
  Si     Si        0.377190607727366    0.609708839057094    0.677793765410186  0.0000
  Si     Si        0.875156980199786    0.897516373106023    0.679177102739290  0.0000
  Si     Si        0.078315439151493    0.899590284656344    0.307004087117997  0.0000
  Si     Si        0.075806680479036    0.100599797376919    0.305953642513512  0.0000
  Si     Si        0.875330780781392    0.102211168544950    0.683942265797529  0.0000
  O3     O3        0.520749930661094    0.219304694031345    0.955921948843108  0.0000
  O2     O2        0.465341717881766    0.782928889446523    0.999020892950734  0.0000
  O2     O2        0.966522030295057    0.728914292594789    0.012778794721812  0.0000
  O3     O3        0.025928607582223    0.275674716599015    0.970169469612149  0.0000
  O3     O3        0.289927734421191    0.164177031025029    0.757575655857352  0.0000
  O2     O2        0.666942104778978    0.165618782191371    0.225907481556739  0.0000
  O2     O2        0.666174025602294    0.834286949750177    0.219017427568912  0.0000
  O2     O2        0.287286369563691    0.838528611813279    0.764079915754432  0.0000
  O3     O3        0.803674972816531    0.674794680130252    0.758803601618722  0.0000
  O2     O2        0.162996596446685    0.664439458722412    0.219651596634998  0.0000
  O2     O2        0.170416895297532    0.333093651455157    0.235710408664473  0.0000
  O1     O1        0.805036282136596    0.336481031874231    0.761753664258291  0.0000
  O3     O3        0.321009383409890    0.347798723160348    0.809644049447768  0.0000
  O2     O2        0.599518736686425    0.334411228404841    0.170054543836927  0.0000
  O2     O2        0.616456207725774    0.663499722705162    0.170987515494333  0.0000
  O2     O2        0.318481571900104    0.666205111264538    0.798201730859931  0.0000
  O2     O2        0.824379595487214    0.843009232999453    0.805854102966853  0.0000
  O2     O2        0.135612996055150    0.836699562157901    0.195392426457225  0.0000
  O2     O2        0.125358788327411    0.162465158586651    0.188426167640987  0.0000
  O3     O3        0.820299745386334    0.156987653697969    0.804961749076667  0.0000
  O3     O3        0.283508662231880    0.241881755391038    0.050029068894020  0.0000
  O3     O3        0.776409532356402    0.263370783827636    0.046018703825500  0.0000
  O2     O2        0.707789349220606    0.749238589207980    0.973701228425473  0.0000
  O2     O2        0.211615510120499    0.750872668142270    0.983012282106758  0.0000
  O2     O2        0.424427353009139    0.382998443985364    0.320117355285653  0.0000
  O3     O3        0.523801470907020    0.364519480818339    0.692623266763585  0.0000
  O3     O3        0.522879053712965    0.646275081625949    0.680980821821841  0.0000
  O2     O2        0.420053031874021    0.622196822990058    0.298110223203017  0.0000
  O2     O2        0.920735878815982    0.880357595404203    0.289065851265946  0.0000
  O2     O2        0.030280469623357    0.873748823824423    0.695006188962105  0.0000
  O2     O2        0.032132039366154    0.128611808914390    0.704792202346192  0.0000
  O2     O2        0.918087471734379    0.117561375459261    0.285089242658981  0.0000
  O2     O2        0.277805785795685    0.390688268133381    0.516980212711717  0.0000
  O3     O3        0.674420849834716    0.386632137898779    0.464574274749963  0.0000
  O3     O3        0.670656266851627    0.615439804990353    0.460786115701276  0.0000
  O2     O2        0.279417754658934    0.618326813559037    0.505118969226857  0.0000
  O2     O2        0.787833730121170    0.875389811760309    0.505049849596000  0.0000
  O2     O2        0.163465697299891    0.883021756705620    0.482095132001710  0.0000
  O2     O2        0.157447977258061    0.119292826267690    0.481580684522355  0.0000
  O2     O2        0.792444462117582    0.122839290401273    0.507883476974042  0.0000
  O2     O2        0.231149468835590    0.500795868389370    0.280793137342164  0.0000
  O1     O1        0.704819064528625    0.504383575568456    0.715517303549952  0.0000
  O2     O2        0.732978607406448    0.999001332150288    0.291839871328273  0.0000
  O2     O2        0.206729116670794    0.001664095164172    0.705083245645795  0.0000
  O2     O2        0.389074762942601    0.507289413472972    0.729386546701785  0.0000
  O2     O2        0.584024663084813    0.499735432356623    0.239994257467590  0.0000
  O2     O2        0.860568712970522    0.999511078861937    0.717055998447953  0.0000
  O2     O2        0.098227324341335    0.999967912907194    0.259456398316953  0.0000
