data_c00570.vasp
_audit_creation_method             Generated by GULP
_audit_author_name                 Salvador R. G. Balestra
_symmetry_space_group_name_H-M     'P 1             '
_symmetry_Int_Tables_number        1

loop_
_symmetry_equiv_pos_site_id
_symmetry_equiv_pos_as_xyz
_cell_length_a                       10.2161
_cell_length_b                       15.2711
_cell_length_c                        8.9328
_cell_angle_alpha                   90.0000
_cell_angle_beta                   105.1739
_cell_angle_gamma                   90.0000

loop_
_atom_site_label
_atom_site_type_symbol
_atom_site_fract_x
_atom_site_fract_y
_atom_site_fract_z
_atom_site_charge
  Ge     Ge        0.351599999999962    0.244500000000016    0.893900000000031  0.0000
  Ge     Ge        0.851588373126900    0.246365939892330    0.893905533872986  0.0000
  Ge     Ge        0.630261776712834    0.395058220382132    0.301097800191171  0.0000
  Ge     Ge        0.130259688292504    0.095802868318791    0.301060031115177  0.0000
  Si     Si        0.648707048723206    0.232869985368760    0.102460261469045  0.0000
  Si     Si        0.663180104580630    0.755396438929537    0.094912143762075  0.0000
  Si     Si        0.366929408115927    0.749742929865238    0.884293860836256  0.0000
  Si     Si        0.866927915654934    0.741113752692374    0.884286878100287  0.0000
  Si     Si        0.163173640107993    0.735449405139507    0.094909201818349  0.0000
  Si     Si        0.148714400533335    0.257999147599411    0.102442619407588  0.0000
  Si     Si        0.325065970652218    0.393833858023034    0.324717814548434  0.0000
  Si     Si        0.727182356186178    0.397864809649233    0.667255561925694  0.0000
  Si     Si        0.722602079673703    0.598925874360683    0.659062859330457  0.0000
  Si     Si        0.326253569573722    0.597227945714174    0.321234239426952  0.0000
  Si     Si        0.826243999296894    0.893630088295434    0.321239198365393  0.0000
  Si     Si        0.222615427558403    0.891937252708817    0.659070280941696  0.0000
  Si     Si        0.227178118530451    0.093007935752478    0.667261612540150  0.0000
  Si     Si        0.825055829968312    0.097019583962245    0.324693519940018  0.0000
  Si     Si        0.424623820843745    0.396420937021993    0.681537663049586  0.0000
  Si     Si        0.627183467429493    0.599178016054285    0.300015539656955  0.0000
  Si     Si        0.422532272493940    0.599680439923356    0.675498608369466  0.0000
  Si     Si        0.922531447423665    0.891182278733359    0.675506324388103  0.0000
  Si     Si        0.127202822505569    0.891680348125963    0.300016813242778  0.0000
  Si     Si        0.924623450035414    0.094446801624341    0.681549566354373  0.0000
  O3     O3        0.487164578369020    0.225697073738960    0.050336089077249  0.0000
  O2     O2        0.507408077726351    0.771312011867967    0.007172186127464  0.0000
  O2     O2        0.007403515698154    0.719532398220395    0.007161956294413  0.0000
  O3     O3        0.987170083628688    0.265165800459751    0.050324489120211  0.0000
  O3     O3        0.337905375625969    0.155500217745913    0.772377006015744  0.0000
  O2     O2        0.702866317284296    0.155035856834007    0.224869554652859  0.0000
  O2     O2        0.708939160132382    0.836329075769553    0.211481362914834  0.0000
  O2     O2        0.336414819555028    0.827848713645355    0.758846616306123  0.0000
  O2     O2        0.836406948380585    0.663020153812286    0.758815881540105  0.0000
  O2     O2        0.208925024973897    0.654514125274363    0.211476881110598  0.0000
  O2     O2        0.202876073148089    0.335831361369069    0.224856490497700  0.0000
  O3     O3        0.837891183331047    0.335371800136889    0.772393751756115  0.0000
  O3     O3        0.371986925186999    0.340917460770128    0.802110044480400  0.0000
  O3     O3        0.692553259370740    0.326015629034633    0.185609068942580  0.0000
  O2     O2        0.682667136422753    0.665969844134560    0.193210759226569  0.0000
  O2     O2        0.370680469685662    0.658148381975987    0.796728034802750  0.0000
  O2     O2        0.870692546170242    0.832716244796535    0.796748428899323  0.0000
  O2     O2        0.182652157624800    0.824875271314379    0.193207395618845  0.0000
  O3     O3        0.192559102126501    0.164850975329041    0.185587565309801  0.0000
  O3     O3        0.871933417034730    0.149951070724784    0.802081856909013  0.0000
  O3     O3        0.207248112801294    0.262992748816395    0.953674542210456  0.0000
  O3     O3        0.707239951500516    0.227885634784898    0.953689679090962  0.0000
  O2     O2        0.749506268906178    0.748767772292915    0.970695879980286  0.0000
  O2     O2        0.249507843210975    0.742079675398820    0.970701214897360  0.0000
  O3     O3        0.462353906019882    0.368340297633845    0.282469913736785  0.0000
  O2     O2        0.581170426253823    0.373047717945393    0.694726317613681  0.0000
  O2     O2        0.578144091752661    0.623696883032097    0.687857864420068  0.0000
  O2     O2        0.469873049140809    0.619916625815769    0.288215767494917  0.0000
  O2     O2        0.969864355782380    0.871006595536937    0.288165887459937  0.0000
  O2     O2        0.078165503431261    0.867202706806189    0.687922327228799  0.0000
  O2     O2        0.081207048017940    0.117791934442720    0.694888284318087  0.0000
  O3     O3        0.962305031757645    0.122456090943593    0.282296843294249  0.0000
  O2     O2        0.337945732061902    0.376237693767325    0.506166059991201  0.0000
  O3     O3        0.723927967872404    0.382980242854734    0.489751503425432  0.0000
  O2     O2        0.715612441557720    0.608844190355988    0.477803120829437  0.0000
  O2     O2        0.332677075178301    0.617583149063133    0.500519357338703  0.0000
  O2     O2        0.832717383838579    0.873234980262017    0.500524475615261  0.0000
  O2     O2        0.215595674072291    0.881969603251309    0.477810952364528  0.0000
  O3     O3        0.223827717742932    0.107945345712148    0.489742081154728  0.0000
  O2     O2        0.838051726382366    0.114669459768169    0.506150600252336  0.0000
  O2     O2        0.291847981587749    0.495671402344385    0.285019494090147  0.0000
  O2     O2        0.761553328050374    0.499418626161452    0.711818276856643  0.0000
  O2     O2        0.791743573615646    0.995182030527377    0.285083559872553  0.0000
  O2     O2        0.261606056613060    0.991451275379595    0.711746351371346  0.0000
  O2     O2        0.410377872035729    0.498689799467922    0.719910584836916  0.0000
  O3     O3        0.641701552359947    0.501828520331135    0.242348644835327  0.0000
  O2     O2        0.910297774918078    0.992175965873841    0.719856945743700  0.0000
  O3     O3        0.141828227761962    0.989027648108739    0.242394400674352  0.0000
