data_c00593.vasp
_audit_creation_method             Generated by GULP
_audit_author_name                 Salvador R. G. Balestra
_symmetry_space_group_name_H-M     'P 1             '
_symmetry_Int_Tables_number        1

loop_
_symmetry_equiv_pos_site_id
_symmetry_equiv_pos_as_xyz
_cell_length_a                       10.2596
_cell_length_b                       15.2548
_cell_length_c                        8.9209
_cell_angle_alpha                   89.9942
_cell_angle_beta                   105.0554
_cell_angle_gamma                   89.7333

loop_
_atom_site_label
_atom_site_type_symbol
_atom_site_fract_x
_atom_site_fract_y
_atom_site_fract_z
_atom_site_charge
  Ge     Ge        0.351599999999962    0.244500000000016    0.893900000000031  0.0000
  Ge     Ge        0.287230793610820    0.398496571529337    0.324768449028818  0.0000
  Ge     Ge        0.705887619708954    0.593359429711794    0.666200485434713  0.0000
  Ge     Ge        0.784442473557802    0.090388198746807    0.327541381822446  0.0000
  Si     Si        0.651305589279056    0.238529188427060    0.101462993533747  0.0000
  Si     Si        0.658539102603808    0.743075958064937    0.098358055178657  0.0000
  Si     Si        0.364865587512577    0.758249978327835    0.891553652785157  0.0000
  Si     Si        0.869243641753429    0.733560720342722    0.894004831262712  0.0000
  Si     Si        0.164203119481136    0.747998666523860    0.106254035692481  0.0000
  Si     Si        0.143885966727954    0.252243822499655    0.105131626041129  0.0000
  Si     Si        0.853466003536621    0.244951327649712    0.894404327878294  0.0000
  Si     Si        0.685926381506074    0.386718995032943    0.667914850196444  0.0000
  Si     Si        0.304177529486413    0.601825076373490    0.330076576066755  0.0000
  Si     Si        0.801364337807776    0.886259456059384    0.327541955217709  0.0000
  Si     Si        0.198212329802391    0.895669404993064    0.666888991940213  0.0000
  Si     Si        0.186509323442078    0.098299504408534    0.664594425097847  0.0000
  Si     Si        0.388211610650161    0.402336593719484    0.690399241849946  0.0000
  Si     Si        0.592498657136381    0.389560302562671    0.308615204343030  0.0000
  Si     Si        0.603916763628143    0.592131186724785    0.305535430327615  0.0000
  Si     Si        0.403107722049159    0.603709193552526    0.686855656337857  0.0000
  Si     Si        0.900764434865300    0.889010576445403    0.687588893795398  0.0000
  Si     Si        0.101453416582689    0.896816063322402    0.310169845899517  0.0000
  Si     Si        0.090436130825522    0.098789665340499    0.309284974617225  0.0000
  Si     Si        0.887829365778374    0.090079508131315    0.690589463755038  0.0000
  O3     O3        0.521245993111134    0.225010262725534    0.962610394909881  0.0000
  O2     O2        0.520228972558563    0.773881924559035    0.979792350546055  0.0000
  O2     O2        0.022961795716275    0.723463433028247    0.990388943123866  0.0000
  O2     O2        0.010778919603587    0.266680394854399    0.964912013194830  0.0000
  O3     O3        0.296891208060808    0.160493234942449    0.765447234024289  0.0000
  O3     O3        0.662532628269573    0.158423195738054    0.220287245564651  0.0000
  O2     O2        0.697992403170941    0.814409496166691    0.235130206054601  0.0000
  O2     O2        0.318968815685321    0.838130677812764    0.771172932337084  0.0000
  O3     O3        0.836950626164513    0.653314019970313    0.776361211322353  0.0000
  O2     O2        0.199874186752484    0.672947274584766    0.236129155415067  0.0000
  O3     O3        0.159153011375256    0.332362802327834    0.224151012935536  0.0000
  O2     O2        0.793442833276810    0.318475732028725    0.766416960330434  0.0000
  O3     O3        0.327207329676771    0.345896535939869    0.804633246459922  0.0000
  O2     O2        0.649238731542362    0.329512803758562    0.192692908774802  0.0000
  O2     O2        0.643925333020055    0.648634146843705    0.172754072559339  0.0000
  O2     O2        0.344522403024552    0.666847175066875    0.798067622614903  0.0000
  O2     O2        0.845363375241315    0.824802531866106    0.798291905596925  0.0000
  O2     O2        0.158505224125899    0.840695730650389    0.189975580149355  0.0000
  O2     O2        0.142046907972141    0.159797099019755    0.191399784552731  0.0000
  O2     O2        0.837842960745396    0.149597081408344    0.813407221698558  0.0000
  O3     O3        0.275205206019397    0.248864462294612    0.041627123728478  0.0000
  O2     O2        0.781790971117709    0.242221853831179    0.033167190601586  0.0000
  O2     O2        0.772873146659788    0.733048062455050    0.008474422868320  0.0000
  O2     O2        0.278588427900376    0.755147587667952    0.016035203218768  0.0000
  O3     O3        0.438271299913700    0.365493597693450    0.291282822181996  0.0000
  O2     O2        0.538507423493383    0.367468740796628    0.693062808668351  0.0000
  O3     O3        0.555546217439798    0.630287913348138    0.696350192344021  0.0000
  O2     O2        0.454237291960110    0.619252740877789    0.313159923004945  0.0000
  O2     O2        0.947186452108704    0.870767073580061    0.295546366056441  0.0000
  O2     O2        0.057586171634762    0.867344652213892    0.701638889957933  0.0000
  O2     O2        0.039729945205288    0.118052557763450    0.691621142880734  0.0000
  O3     O3        0.936439245244508    0.120286988941274    0.296576674167834  0.0000
  O3     O3        0.293495993914208    0.391887610759223    0.518560628610593  0.0000
  O2     O2        0.679289482938004    0.374911574334089    0.485951164545287  0.0000
  O3     O3        0.704445358236945    0.606239301347084    0.473126864134787  0.0000
  O2     O2        0.309031478906264    0.610730002728401    0.511688378963873  0.0000
  O2     O2        0.813703307516010    0.875968015401913    0.510893622393291  0.0000
  O2     O2        0.190117368244971    0.879969793984320    0.485793620564779  0.0000
  O2     O2        0.179670360449160    0.115574969420948    0.484371514199611  0.0000
  O3     O3        0.790274154817165    0.102649162835759    0.521339504318335  0.0000
  O3     O3        0.255242290284776    0.506445935731091    0.268123433069652  0.0000
  O3     O3        0.730932571038041    0.484490633000575    0.718446700269226  0.0000
  O3     O3        0.748180549220541    0.982583776016952    0.274547223120397  0.0000
  O2     O2        0.227189070486196    0.997397671119356    0.708404001570508  0.0000
  O2     O2        0.398573029772781    0.503744817797153    0.743990899909494  0.0000
  O2     O2        0.605635078942234    0.490051916060050    0.258954524797967  0.0000
  O2     O2        0.885098734809186    0.988454981850318    0.741270463339232  0.0000
  O2     O2        0.108413868042655    0.998023672899045    0.263473022331773  0.0000
