data_c00539.vasp
_audit_creation_method             Generated by GULP
_audit_author_name                 Salvador R. G. Balestra
_symmetry_space_group_name_H-M     'P 1             '
_symmetry_Int_Tables_number        1

loop_
_symmetry_equiv_pos_site_id
_symmetry_equiv_pos_as_xyz
_cell_length_a                       10.2548
_cell_length_b                       15.2203
_cell_length_c                        8.9381
_cell_angle_alpha                   89.8009
_cell_angle_beta                   104.8589
_cell_angle_gamma                   89.8909

loop_
_atom_site_label
_atom_site_type_symbol
_atom_site_fract_x
_atom_site_fract_y
_atom_site_fract_z
_atom_site_charge
  Ge     Ge        0.351599999999962    0.244500000000016    0.893900000000031  0.0000
  Ge     Ge        0.851346046370931    0.249020058445297    0.892561429374312  0.0000
  Ge     Ge        0.725120232763509    0.599210702852497    0.657450984263770  0.0000
  Ge     Ge        0.318687082364573    0.603041576367799    0.325389846812213  0.0000
  Si     Si        0.646924501583659    0.239526747426449    0.105970448218697  0.0000
  Si     Si        0.679113462627372    0.754805328013341    0.090283895772315  0.0000
  Si     Si        0.385308595848878    0.756066019865132    0.888663812805390  0.0000
  Si     Si        0.885260626273293    0.742123737969969    0.882042880719212  0.0000
  Si     Si        0.179445020787640    0.749606316690271    0.095723617031057  0.0000
  Si     Si        0.146234157687621    0.258321857626904    0.105424414595109  0.0000
  Si     Si        0.318669822585705    0.398214217325483    0.324364915285312  0.0000
  Si     Si        0.717140528896522    0.393901922622453    0.658652734483081  0.0000
  Si     Si        0.824351770660403    0.897323590615350    0.317402561114665  0.0000
  Si     Si        0.217778143195841    0.893501253174974    0.658693539504744  0.0000
  Si     Si        0.218183596547170    0.097141744542363    0.664798427914663  0.0000
  Si     Si        0.821936882158792    0.099561746401862    0.327667678366264  0.0000
  Si     Si        0.422622589718455    0.397998796072215    0.683367362593882  0.0000
  Si     Si        0.616066574267240    0.399988110179878    0.299064878105790  0.0000
  Si     Si        0.624986018256515    0.601351535819866    0.298177689701039  0.0000
  Si     Si        0.422432963326358    0.602470543461573    0.683059964350887  0.0000
  Si     Si        0.918291593419776    0.893173274773903    0.672380282388966  0.0000
  Si     Si        0.125627038830343    0.899607869764777    0.302530120024997  0.0000
  Si     Si        0.121642188016285    0.100678965249870    0.307665278531898  0.0000
  Si     Si        0.919854858214894    0.096363530223127    0.684838268406364  0.0000
  O3     O3        0.488626710198473    0.222708746802466    0.044847577421456  0.0000
  O2     O2        0.539417275517848    0.779645254841247    0.969817810718019  0.0000
  O2     O2        0.041471753873586    0.735309155912969    0.968338010675622  0.0000
  O3     O3        0.987655991184013    0.274816917605761    0.041690175946690  0.0000
  O3     O3        0.332283080508966    0.157763550333754    0.765440837737552  0.0000
  O2     O2        0.708495609617580    0.162752266075895    0.227759180705185  0.0000
  O2     O2        0.713633776717865    0.833935997454311    0.213155402050830  0.0000
  O2     O2        0.332493364919030    0.831343054527458    0.760683658416743  0.0000
  O3     O3        0.853151074235219    0.660576693162275    0.768482942713548  0.0000
  O3     O3        0.197425930840787    0.670876009716697    0.216933890194799  0.0000
  O2     O2        0.205842839489408    0.332868523915515    0.230554080907023  0.0000
  O3     O3        0.830030414667452    0.327575446340547    0.748441955417149  0.0000
  O3     O3        0.363555143680710    0.342094957680121    0.799611667034040  0.0000
  O2     O2        0.673492271722703    0.334255847943786    0.191357416876821  0.0000
  O2     O2        0.670474240306306    0.662398523705479    0.174230330471585  0.0000
  O2     O2        0.373678165113379    0.660636517583646    0.809078697265542  0.0000
  O2     O2        0.856348239638219    0.832369021573255    0.782962804327120  0.0000
  O2     O2        0.181698749073152    0.841727115536191    0.184511970233427  0.0000
  O2     O2        0.174553472868638    0.163922220418780    0.192911611068952  0.0000
  O3     O3        0.866520874868495    0.148769021997349    0.808738534646686  0.0000
  O3     O3        0.210629840032909    0.258001505093865    0.961716636542215  0.0000
  O3     O3        0.710307316788076    0.241051623180052    0.961545220602067  0.0000
  O2     O2        0.794924841318929    0.742263369199856    0.002849877455721  0.0000
  O2     O2        0.303300551849969    0.751948686286282    0.017795502684331  0.0000
  O2     O2        0.461012552422674    0.375298556129003    0.287369995395065  0.0000
  O2     O2        0.574452854263049    0.365639937788671    0.691626381334211  0.0000
  O3     O3        0.570712754138152    0.633469050856323    0.678353877055491  0.0000
  O3     O3        0.476621054535189    0.628938204613463    0.306529710132160  0.0000
  O2     O2        0.967820136664456    0.880148546082035    0.280734478326103  0.0000
  O2     O2        0.075505300118968    0.869813831365747    0.693418554694395  0.0000
  O2     O2        0.076793038318176    0.119888835646901    0.704655000458860  0.0000
  O2     O2        0.962941446225712    0.119007131252985    0.286408491328906  0.0000
  O2     O2        0.331506464807132    0.388305475067571    0.507422074118676  0.0000
  O2     O2        0.704440420042336    0.391323964430123    0.475004379126363  0.0000
  O3     O3        0.726939062874243    0.610113021381644    0.465497409189582  0.0000
  O3     O3        0.319276417876917    0.614904329743220    0.517354865694482  0.0000
  O2     O2        0.835434864538083    0.875057994456075    0.496297580490488  0.0000
  O2     O2        0.208394685979536    0.877427585253078    0.477896445471696  0.0000
  O2     O2        0.203597116608393    0.117452118891601    0.483977553748088  0.0000
  O2     O2        0.836204391063741    0.117547595781653    0.508649708991007  0.0000
  O3     O3        0.276823445377936    0.496308034186252    0.270064629940940  0.0000
  O3     O3        0.754909013921885    0.491756699013427    0.716948836242493  0.0000
  O2     O2        0.779769436407203    0.998712989826812    0.284720356951529  0.0000
  O2     O2        0.254863855895308    0.994741184502999    0.700315603381274  0.0000
  O2     O2        0.426737018443632    0.500093965465512    0.732484987017657  0.0000
  O2     O2        0.624164355687202    0.499863284013871    0.241248785368137  0.0000
  O2     O2        0.903461479923802    0.993508493417573    0.717958857985161  0.0000
  O2     O2        0.145533589652953    0.000900837309183    0.261971652562659  0.0000
