data_c00651.vasp
_audit_creation_method             Generated by GULP
_audit_author_name                 Salvador R. G. Balestra
_symmetry_space_group_name_H-M     'P 1             '
_symmetry_Int_Tables_number        1

loop_
_symmetry_equiv_pos_site_id
_symmetry_equiv_pos_as_xyz
_cell_length_a                       10.2137
_cell_length_b                       15.2997
_cell_length_c                        8.9127
_cell_angle_alpha                   89.7844
_cell_angle_beta                   105.3758
_cell_angle_gamma                   89.8720

loop_
_atom_site_label
_atom_site_type_symbol
_atom_site_fract_x
_atom_site_fract_y
_atom_site_fract_z
_atom_site_charge
  Ge     Ge        0.351599999999962    0.244500000000016    0.893900000000031  0.0000
  Ge     Ge        0.279575087535068    0.402553376309179    0.322138988891936  0.0000
  Ge     Ge        0.776514100740343    0.096445803173479    0.325854913907849  0.0000
  Ge     Ge        0.883363488248600    0.095616422084630    0.698559131978139  0.0000
  Si     Si        0.652004778791650    0.249717955756781    0.106093278247976  0.0000
  Si     Si        0.650584701391359    0.749029853097742    0.106772546095350  0.0000
  Si     Si        0.354242206614747    0.759418834348661    0.892957008274686  0.0000
  Si     Si        0.852593758887679    0.736604708195477    0.893274287336434  0.0000
  Si     Si        0.149402839718321    0.750288179459199    0.102966935196874  0.0000
  Si     Si        0.144490522579367    0.252217975810483    0.104445593515130  0.0000
  Si     Si        0.850217365043000    0.254720427812891    0.899763813654693  0.0000
  Si     Si        0.678348791708947    0.394835641154313    0.673615751465604  0.0000
  Si     Si        0.689664558746012    0.597385482359875    0.672053984944084  0.0000
  Si     Si        0.291055323757144    0.605508587380252    0.328210402924689  0.0000
  Si     Si        0.789696429410305    0.895156847996597    0.326320312704927  0.0000
  Si     Si        0.187992398462620    0.896079882798038    0.665491592244797  0.0000
  Si     Si        0.186857778466868    0.100035949583563    0.669341863424279  0.0000
  Si     Si        0.376647979578871    0.404068873167060    0.691013841455720  0.0000
  Si     Si        0.588740963410584    0.396876272429265    0.314824309994376  0.0000
  Si     Si        0.594674037526325    0.599237023589198    0.315671645112688  0.0000
  Si     Si        0.389206013183192    0.603991223137315    0.688468932620204  0.0000
  Si     Si        0.890947525287701    0.892720196844643    0.689458447309506  0.0000
  Si     Si        0.090696752385939    0.899425418088707    0.309045022167232  0.0000
  Si     Si        0.086771965825255    0.101217163292281    0.313025072215883  0.0000
  O3     O3        0.524848812188643    0.238574446911795    0.960596514351383  0.0000
  O2     O2        0.510068580127606    0.773516782988932    0.984067041981469  0.0000
  O2     O2        0.009539340015761    0.724607267716715    0.981640814135914  0.0000
  O2     O2        0.012790921271773    0.266076696291902    0.959686044380568  0.0000
  O3     O3        0.307404087940157    0.156509264863643    0.771608389651162  0.0000
  O3     O3        0.657719932286529    0.166873306779281    0.217447544301222  0.0000
  O2     O2        0.683050427407536    0.823339048610526    0.238517081373083  0.0000
  O2     O2        0.310055892635141    0.839060679138346    0.771267134923630  0.0000
  O2     O2        0.808970440763374    0.653148583454832    0.782306837951344  0.0000
  O2     O2        0.184432966847018    0.676293396768016    0.235534734655116  0.0000
  O3     O3        0.156357963479666    0.333652001001868    0.219187806539732  0.0000
  O2     O2        0.793081100903531    0.332870567701143    0.778313585929946  0.0000
  O3     O3        0.313606984608499    0.343772175791834    0.798292573239277  0.0000
  O2     O2        0.649202891284343    0.338734997365140    0.200821902705409  0.0000
  O2     O2        0.645975123109927    0.656495133564406    0.191910448556629  0.0000
  O2     O2        0.334209273372765    0.668428396517004    0.799113160045792  0.0000
  O2     O2        0.829051319398164    0.823655859068543    0.787406196761571  0.0000
  O2     O2        0.141694229246837    0.843113727502229    0.184512992273715  0.0000
  O2     O2        0.138021542024364    0.161153392209153    0.193184743019446  0.0000
  O3     O3        0.819395013742557    0.161691300215167    0.817780116751019  0.0000
  O3     O3        0.277699849142223    0.244576272691670    0.044496926049750  0.0000
  O2     O2        0.787422850366859    0.256236309230831    0.046414930568828  0.0000
  O2     O2        0.767190514655841    0.743882232241606    0.018680822538797  0.0000
  O2     O2        0.266144419841829    0.757186082049731    0.015646108493544  0.0000
  O3     O3        0.431783365695575    0.374936552667839    0.285393159214407  0.0000
  O2     O2        0.532762089397153    0.375517888115190    0.704280851029172  0.0000
  O2     O2        0.546766663461900    0.624791910479360    0.703223334688688  0.0000
  O2     O2        0.438613987531371    0.622470966302116    0.300780067158151  0.0000
  O2     O2        0.936324656018940    0.874162594952396    0.299139775927250  0.0000
  O2     O2        0.046133638439998    0.866238743664070    0.696723805574831  0.0000
  O3     O3        0.046038478037074    0.128666729685904    0.702072585395581  0.0000
  O3     O3        0.934469834152535    0.125201526438362    0.307386413643927  0.0000
  O3     O3        0.288643593185347    0.391715535870405    0.515803975702275  0.0000
  O2     O2        0.668957647479407    0.375894941271475    0.493363015886025  0.0000
  O2     O2        0.684076768498119    0.616653487354813    0.491950937262088  0.0000
  O2     O2        0.300930496730952    0.615186346897295    0.511052589838248  0.0000
  O2     O2        0.801141118996715    0.893994146249542    0.510606285338524  0.0000
  O2     O2        0.183133131349225    0.882049863743550    0.484346021084741  0.0000
  O2     O2        0.180064313938509    0.115910218134186    0.487952946587714  0.0000
  O1     O1        0.777132072622910    0.104844586720960    0.516181463345258  0.0000
  O3     O3        0.240463521914308    0.510119709046085    0.269729285273282  0.0000
  O2     O2        0.719977957821957    0.495437079102746    0.711769097529126  0.0000
  O3     O3        0.740172246468987    0.990240203563877    0.262193325285181  0.0000
  O2     O2        0.212920258116129    0.997406069031599    0.709969800675349  0.0000
  O2     O2        0.373829979003780    0.505029049793854    0.743081410597261  0.0000
  O2     O2        0.608097116252241    0.498032388244290    0.274675320672067  0.0000
  O3     O3        0.886757962414784    0.987913688203897    0.760061457880594  0.0000
  O2     O2        0.098689576303495    0.000670014913418    0.263249088987588  0.0000
