data_c00648.vasp
_audit_creation_method             Generated by GULP
_audit_author_name                 Salvador R. G. Balestra
_symmetry_space_group_name_H-M     'P 1             '
_symmetry_Int_Tables_number        1

loop_
_symmetry_equiv_pos_site_id
_symmetry_equiv_pos_as_xyz
_cell_length_a                       10.1781
_cell_length_b                       15.2967
_cell_length_c                        8.9248
_cell_angle_alpha                   90.2963
_cell_angle_beta                   105.2521
_cell_angle_gamma                   89.4581

loop_
_atom_site_label
_atom_site_type_symbol
_atom_site_fract_x
_atom_site_fract_y
_atom_site_fract_z
_atom_site_charge
  Ge     Ge        0.351599999999962    0.244500000000016    0.893900000000031  0.0000
  Ge     Ge        0.281797864699450    0.399893855185681    0.324709051434475  0.0000
  Ge     Ge        0.781532703619412    0.095707718122800    0.325358149002386  0.0000
  Ge     Ge        0.889045212019714    0.893952064824239    0.692234675326707  0.0000
  Si     Si        0.653514449651364    0.246064757125707    0.102882266683612  0.0000
  Si     Si        0.654658369305890    0.745185063863819    0.106550437674918  0.0000
  Si     Si        0.359015358971497    0.759322619415610    0.892522854827370  0.0000
  Si     Si        0.855706897912735    0.735040418426190    0.895914232123563  0.0000
  Si     Si        0.153443127413397    0.748689793550472    0.100994047455709  0.0000
  Si     Si        0.146517559001815    0.250258731711980    0.106992805667613  0.0000
  Si     Si        0.853885936471101    0.254040935464403    0.894483559123242  0.0000
  Si     Si        0.682282952699944    0.394829083499188    0.672121183626697  0.0000
  Si     Si        0.691050908971816    0.597673544879811    0.669763806325426  0.0000
  Si     Si        0.290141198641342    0.602693049026110    0.326367659146679  0.0000
  Si     Si        0.787450137432047    0.894203493311055    0.327050337268501  0.0000
  Si     Si        0.192753959519769    0.895233003964455    0.666738817092926  0.0000
  Si     Si        0.183815909449065    0.099167396115439    0.665433668146163  0.0000
  Si     Si        0.380129487227207    0.403740518734320    0.692134744216115  0.0000
  Si     Si        0.592483923255104    0.394374552375226    0.313872707865171  0.0000
  Si     Si        0.595553322024815    0.596507164127553    0.314824442355940  0.0000
  Si     Si        0.389201949913737    0.604006968293461    0.685955560915010  0.0000
  Si     Si        0.092895420444594    0.897281171119611    0.312794893575026  0.0000
  Si     Si        0.089311934990803    0.099287447797745    0.310576696448784  0.0000
  Si     Si        0.883774739048427    0.096715779217373    0.691550670522538  0.0000
  O3     O3        0.524801426913399    0.232681238766878    0.960053996112464  0.0000
  O2     O2        0.517618465900417    0.768711735163079    0.976973411815259  0.0000
  O2     O2        0.016741031298921    0.725132797150568    0.971516825348753  0.0000
  O2     O2        0.015350896702076    0.265861684062593    0.962671503970259  0.0000
  O3     O3        0.299247311278141    0.157988324993787    0.769613018693198  0.0000
  O3     O3        0.661468644551623    0.166788843355972    0.221530565543688  0.0000
  O2     O2        0.683565009853810    0.823690327999123    0.229926098898399  0.0000
  O2     O2        0.317470177389794    0.840391641639895    0.774666269617160  0.0000
  O2     O2        0.811047304665637    0.654983446862992    0.775527238169267  0.0000
  O2     O2        0.184801940520244    0.673276464533568    0.230031165950686  0.0000
  O3     O3        0.157864929625120    0.330202638260679    0.225646512883066  0.0000
  O2     O2        0.797857892420621    0.335129203575791    0.781191475978955  0.0000
  O3     O3        0.319217500442242    0.344721661680737    0.802194456835021  0.0000
  O2     O2        0.651032738216943    0.336440827220629    0.196148581572418  0.0000
  O2     O2        0.645312446103028    0.654582076064667    0.192930954618014  0.0000
  O2     O2        0.331870733679176    0.668996894997695    0.795380514142217  0.0000
  O3     O3        0.823996713896386    0.826081714251157    0.806491166117262  0.0000
  O2     O2        0.139164559692793    0.840234541852560    0.184832793633480  0.0000
  O2     O2        0.143165322914784    0.157837180448731    0.191488537812884  0.0000
  O2     O2        0.825739417023662    0.163986083246349    0.797836618000819  0.0000
  O3     O3        0.280348754080627    0.246413126675933    0.046525442637737  0.0000
  O2     O2        0.786360096297479    0.248722665854952    0.037045572713317  0.0000
  O2     O2        0.778397340083998    0.732468984371847    0.029782142858555  0.0000
  O2     O2        0.275184823797089    0.758783513696592    0.020593127341494  0.0000
  O3     O3        0.434946121736137    0.373674250782401    0.286698239008286  0.0000
  O2     O2        0.536816813716718    0.375572731660157    0.703834451016555  0.0000
  O2     O2        0.547421508126811    0.624892044978270    0.701759953854711  0.0000
  O2     O2        0.438217293850983    0.617583158904429    0.298984265355711  0.0000
  O2     O2        0.940478028394681    0.873540276259435    0.315204377348976  0.0000
  O3     O3        0.053708118928640    0.862635495589802    0.698087600979110  0.0000
  O2     O2        0.036310284147899    0.125153634225476    0.688439079760987  0.0000
  O3     O3        0.936308815278797    0.126401384180636    0.300241180825082  0.0000
  O3     O3        0.291506555331586    0.389340690255739    0.518130022077129  0.0000
  O2     O2        0.673287448359566    0.373691063607450    0.492292319656271  0.0000
  O2     O2        0.684388148522348    0.616287705150432    0.489979882948477  0.0000
  O2     O2        0.300589459014088    0.614876420822207    0.508916732999455  0.0000
  O3     O3        0.786463180535754    0.889534975797174    0.505249232630567  0.0000
  O2     O2        0.190253017065377    0.881113725642710    0.485636552052435  0.0000
  O2     O2        0.182102732140921    0.114052616548064    0.485841915113571  0.0000
  O3     O3        0.785901769802654    0.099014686660021    0.519343165844315  0.0000
  O3     O3        0.238781337551675    0.506941273967416    0.271431648687205  0.0000
  O2     O2        0.722540384583903    0.495788551221044    0.708466859674861  0.0000
  O3     O3        0.743251969908455    0.990008899562399    0.260990271642809  0.0000
  O2     O2        0.213317012656519    0.997456310966776    0.709578099550188  0.0000
  O2     O2        0.375177711788242    0.505352397211686    0.741043129023458  0.0000
  O2     O2        0.613141671638728    0.495264649497140    0.274901908101851  0.0000
  O3     O3        0.887439372445407    0.999991666130805    0.759557751969953  0.0000
  O2     O2        0.099017678085092    0.997884654539355    0.263239572908474  0.0000
