data_c00608.vasp
_audit_creation_method             Generated by GULP
_audit_author_name                 Salvador R. G. Balestra
_symmetry_space_group_name_H-M     'P 1             '
_symmetry_Int_Tables_number        1

loop_
_symmetry_equiv_pos_site_id
_symmetry_equiv_pos_as_xyz
_cell_length_a                       10.2530
_cell_length_b                       15.1972
_cell_length_c                        8.9403
_cell_angle_alpha                   90.4447
_cell_angle_beta                   104.7482
_cell_angle_gamma                   89.7189

loop_
_atom_site_label
_atom_site_type_symbol
_atom_site_fract_x
_atom_site_fract_y
_atom_site_fract_z
_atom_site_charge
  Ge     Ge        0.351599999999962    0.244500000000016    0.893900000000031  0.0000
  Ge     Ge        0.309337493928270    0.391183136008678    0.332230808567203  0.0000
  Ge     Ge        0.307552337655597    0.606069936122229    0.322268189136997  0.0000
  Ge     Ge        0.614078840204281    0.602240579244187    0.297305989429384  0.0000
  Si     Si        0.647723123415652    0.238075453212180    0.100046585605970  0.0000
  Si     Si        0.650910745591946    0.759417624727970    0.092604995815885  0.0000
  Si     Si        0.359154369109400    0.758125133963160    0.890880286161796  0.0000
  Si     Si        0.848888230399792    0.749047565289117    0.877889903780341  0.0000
  Si     Si        0.144949958572357    0.742877647932709    0.088798280576272  0.0000
  Si     Si        0.135009196902344    0.254997207387785    0.097071911788793  0.0000
  Si     Si        0.843282691923507    0.252783755458847    0.883696855569819  0.0000
  Si     Si        0.709727899030721    0.399589748328887    0.659861471297291  0.0000
  Si     Si        0.714914928067616    0.599851777143747    0.652868199098707  0.0000
  Si     Si        0.816298358868912    0.897162689140117    0.319895969099949  0.0000
  Si     Si        0.210379466543425    0.897211011972118    0.658150845212553  0.0000
  Si     Si        0.211425146877510    0.100901667763688    0.655000570385570  0.0000
  Si     Si        0.816284941893133    0.098549642493804    0.321081686619565  0.0000
  Si     Si        0.411600062342981    0.402423086470146    0.691802976969524  0.0000
  Si     Si        0.608916632878688    0.392848334323424    0.303965598072722  0.0000
  Si     Si        0.412026094439457    0.604766617489843    0.677522021206159  0.0000
  Si     Si        0.911333512498973    0.899705343109632    0.675639609787351  0.0000
  Si     Si        0.116638747584624    0.895925262780684    0.301773910124146  0.0000
  Si     Si        0.115261684251475    0.097755025431887    0.299278094698764  0.0000
  Si     Si        0.912427279274365    0.102003693812276    0.677266337362613  0.0000
  O3     O3        0.492365232688275    0.215681361542557    0.033571055633239  0.0000
  O2     O2        0.494411772890803    0.782897252441444    0.019007939885113  0.0000
  O2     O2        0.990349515711040    0.731909329534313    0.997585632795779  0.0000
  O2     O2        0.977401850025659    0.270345243414289    0.017155516111587  0.0000
  O3     O3        0.324333963191019    0.163702001553759    0.752590583534946  0.0000
  O2     O2        0.704309297149965    0.160496274515051    0.219144794219269  0.0000
  O2     O2        0.702524791234359    0.832942924782623    0.224445857852267  0.0000
  O2     O2        0.323577675093176    0.835530188276612    0.764401765006307  0.0000
  O2     O2        0.818048656928726    0.665111014610287    0.764466036855163  0.0000
  O3     O3        0.175758249465082    0.664541317183076    0.208496707042157  0.0000
  O3     O3        0.178897890149785    0.328012527049608    0.228237965268627  0.0000
  O2     O2        0.818240622426292    0.333748935011240    0.763731958537697  0.0000
  O3     O3        0.374929059811498    0.346708143998032    0.823453775708980  0.0000
  O2     O2        0.670671093518981    0.331198156381211    0.191298896936930  0.0000
  O3     O3        0.673275445332604    0.663759195151383    0.167620772962078  0.0000
  O2     O2        0.384662290237806    0.667277448687447    0.810442157928383  0.0000
  O2     O2        0.851522083730694    0.838505121388245    0.785008005765456  0.0000
  O2     O2        0.171119883044726    0.834858254767840    0.184574771680424  0.0000
  O2     O2        0.163864550087132    0.159174608541692    0.179429788260193  0.0000
  O2     O2        0.855007829506085    0.162961145090842    0.791698304433788  0.0000
  O3     O3        0.214746792951018    0.259565017748043    0.967165748343312  0.0000
  O2     O2        0.718242796996421    0.242449609831369    0.959097668234144  0.0000
  O2     O2        0.730308744935732    0.763309786741990    0.960936341533302  0.0000
  O2     O2        0.238705744294529    0.741500437587711    0.970481339973138  0.0000
  O3     O3        0.460727879092224    0.357207188982720    0.298819587537640  0.0000
  O2     O2        0.562448378311374    0.378449815570751    0.680952388502664  0.0000
  O2     O2        0.559744895238138    0.620923350373417    0.650043145719994  0.0000
  O1     O1        0.456712990959561    0.641367745253680    0.292048307298215  0.0000
  O2     O2        0.958921036323799    0.876495733857546    0.282476453376998  0.0000
  O2     O2        0.068191259521737    0.877032279531821    0.695472312086135  0.0000
  O2     O2        0.069444989510710    0.123340508056352    0.694863610352307  0.0000
  O2     O2        0.958479354339664    0.117292754812964    0.283979812368016  0.0000
  O3     O3        0.312211231816739    0.382562872891715    0.525558895204943  0.0000
  O2     O2        0.704876242479477    0.388103917568295    0.478913016514027  0.0000
  O3     O3        0.724841430206533    0.610637867430063    0.478945458005063  0.0000
  O3     O3        0.306509372931050    0.619874151719674    0.515321908318286  0.0000
  O2     O2        0.828266357578303    0.881459870496426    0.500299533015664  0.0000
  O2     O2        0.199748562590700    0.876417019278966    0.477924521087502  0.0000
  O2     O2        0.199558406943473    0.118096911107883    0.474164003284063  0.0000
  O2     O2        0.827671027474104    0.117761849732945    0.501439800652914  0.0000
  O1     O1        0.282814690636306    0.497644082066702    0.274421517192359  0.0000
  O2     O2        0.752321396749656    0.499858009708734    0.711058430544181  0.0000
  O2     O2        0.773503180827982    0.997784886617510    0.278607182962149  0.0000
  O2     O2        0.249684747021757    0.998964535638271    0.694188477853351  0.0000
  O2     O2        0.402248128636214    0.505257698705869    0.734344106798119  0.0000
  O3     O3        0.601532360781154    0.492172983222208    0.245262168813576  0.0000
  O2     O2        0.895906681298759    0.000959045590897    0.722935735465537  0.0000
  O2     O2        0.137792048508718    0.996465338517274    0.258004433673815  0.0000
