data_c00699.vasp
_audit_creation_method             Generated by GULP
_audit_author_name                 Salvador R. G. Balestra
_symmetry_space_group_name_H-M     'P 1             '
_symmetry_Int_Tables_number        1

loop_
_symmetry_equiv_pos_site_id
_symmetry_equiv_pos_as_xyz
_cell_length_a                       10.2048
_cell_length_b                       15.2588
_cell_length_c                        8.9341
_cell_angle_alpha                   90.5053
_cell_angle_beta                   104.9922
_cell_angle_gamma                   89.5431

loop_
_atom_site_label
_atom_site_type_symbol
_atom_site_fract_x
_atom_site_fract_y
_atom_site_fract_z
_atom_site_charge
  Ge     Ge        0.351599999999962    0.244500000000016    0.893900000000031  0.0000
  Ge     Ge        0.712987236178802    0.402232593923666    0.674460858977375  0.0000
  Ge     Ge        0.298726682881350    0.605766572008362    0.327448460730148  0.0000
  Ge     Ge        0.610173853102768    0.609710514701999    0.304546315441328  0.0000
  Si     Si        0.652439949869033    0.247154944618935    0.106910672339024  0.0000
  Si     Si        0.640881946286474    0.768863890400192    0.100432837995369  0.0000
  Si     Si        0.347335835093715    0.754173257285522    0.896188962367069  0.0000
  Si     Si        0.836970228653915    0.757309406212443    0.884112188040598  0.0000
  Si     Si        0.133757121653663    0.743408631545783    0.095522832364290  0.0000
  Si     Si        0.148724055725001    0.254491528444509    0.111526781853705  0.0000
  Si     Si        0.857455985184403    0.256756094611257    0.901719530338806  0.0000
  Si     Si        0.314946847024535    0.399048030669604    0.330070631241704  0.0000
  Si     Si        0.707133076022432    0.605282636601822    0.663058368431955  0.0000
  Si     Si        0.807176599282185    0.906706945257451    0.324871182259188  0.0000
  Si     Si        0.203916915789379    0.894821821529559    0.663542554566524  0.0000
  Si     Si        0.218771967550095    0.096109716845226    0.668725222626647  0.0000
  Si     Si        0.819650587510691    0.108247592042288    0.333991568745069  0.0000
  Si     Si        0.406910775969297    0.400512137007980    0.688262466536759  0.0000
  Si     Si        0.615564930464557    0.404765777855622    0.307564007571255  0.0000
  Si     Si        0.403098654481359    0.602715880569350    0.683212614091540  0.0000
  Si     Si        0.903574282873604    0.904541704619092    0.680285859923522  0.0000
  Si     Si        0.108704548942297    0.898378838479801    0.305702230959491  0.0000
  Si     Si        0.119987388550411    0.098622065996671    0.311995997343061  0.0000
  Si     Si        0.918012416642027    0.106568369452685    0.689433046277078  0.0000
  O3     O3        0.496290932431335    0.226596947550512    0.036622856721968  0.0000
  O2     O2        0.480419424276505    0.781746260023869    0.026965688720528  0.0000
  O2     O2        0.976867422412028    0.736410854955647    0.007170593046269  0.0000
  O2     O2        0.988361690714786    0.271896204879643    0.043675329827610  0.0000
  O3     O3        0.334975235454824    0.156646992583349    0.766653617608132  0.0000
  O2     O2        0.709539247464680    0.172171811736027    0.231662276028046  0.0000
  O2     O2        0.687625513473603    0.848522366574641    0.221648784494905  0.0000
  O2     O2        0.313279852704496    0.828399822952458    0.764454093635697  0.0000
  O2     O2        0.805436192529848    0.676240960018209    0.766318428699173  0.0000
  O3     O3        0.165716906958450    0.664263681343150    0.213900347267345  0.0000
  O2     O2        0.205655913531056    0.332064363600479    0.232175601540201  0.0000
  O3     O3        0.838571293568759    0.335528682984303    0.781361508882479  0.0000
  O3     O3        0.345817758314646    0.342890293818869    0.799849638914000  0.0000
  O2     O2        0.670802322577151    0.341276379932407    0.192723364225814  0.0000
  O3     O3        0.673362124230317    0.677294906638789    0.187197291026477  0.0000
  O2     O2        0.373518317886109    0.662104258982990    0.819622727951345  0.0000
  O2     O2        0.843564775950967    0.846972062740487    0.794087500073795  0.0000
  O2     O2        0.162908341290852    0.834949372571980    0.191361918616832  0.0000
  O2     O2        0.176358977955007    0.161613301869104    0.201059561953058  0.0000
  O2     O2        0.867799102427509    0.166084715210816    0.811224521755196  0.0000
  O3     O3        0.214330086231250    0.250876226470882    0.970048432602914  0.0000
  O2     O2        0.726293146358678    0.250039371083611    0.968953798442079  0.0000
  O2     O2        0.716277423219236    0.771470227873425    0.964831326016673  0.0000
  O2     O2        0.224778127072628    0.739933946724116    0.973934088840363  0.0000
  O2     O2        0.463218070408374    0.375820079408562    0.308101275765819  0.0000
  O3     O3        0.560085689073816    0.369583366983059    0.702652025330145  0.0000
  O2     O2        0.548663008805589    0.624114521208968    0.653548691972351  0.0000
  O1     O1        0.447544444360843    0.641724139026149    0.296534486174488  0.0000
  O2     O2        0.949012115493987    0.882729725969290    0.286009079424946  0.0000
  O2     O2        0.059774715622891    0.878119089672126    0.699214905663809  0.0000
  O2     O2        0.076701061675233    0.122676657935371    0.706221374106799  0.0000
  O2     O2        0.963632545518816    0.122768898929833    0.297301918900982  0.0000
  O2     O2        0.318322288257822    0.390495406211240    0.510758791827452  0.0000
  O3     O3        0.709945864099301    0.397907667589326    0.480465537873345  0.0000
  O3     O3        0.718124702233666    0.612453498229324    0.488735773927914  0.0000
  O3     O3        0.295551026599871    0.617006442035202    0.520239464596618  0.0000
  O2     O2        0.818229289574013    0.886746413975424    0.504394866785996  0.0000
  O2     O2        0.191636304200192    0.877958481324607    0.481988210710056  0.0000
  O2     O2        0.207219222679650    0.111729479623865    0.487762749948684  0.0000
  O2     O2        0.832429780818480    0.128844218442169    0.514769860994456  0.0000
  O3     O3        0.275291411236986    0.496706744596522    0.274499413041326  0.0000
  O3     O3        0.747757678452949    0.509846980926227    0.732622500586012  0.0000
  O2     O2        0.771468838700514    0.008710709586433    0.292287019117209  0.0000
  O2     O2        0.251717106164191    0.994005181917560    0.708563169474906  0.0000
  O2     O2        0.403874416136630    0.502349519676613    0.738773206264465  0.0000
  O3     O3        0.611082532467989    0.502080038411713    0.242534417860692  0.0000
  O2     O2        0.892694262585073    0.005921001600873    0.726141020337388  0.0000
  O2     O2        0.133423539959923    0.997913330921283    0.261072376635573  0.0000
