data_c00696.vasp
_audit_creation_method             Generated by GULP
_audit_author_name                 Salvador R. G. Balestra
_symmetry_space_group_name_H-M     'P 1             '
_symmetry_Int_Tables_number        1

loop_
_symmetry_equiv_pos_site_id
_symmetry_equiv_pos_as_xyz
_cell_length_a                       10.3104
_cell_length_b                       15.2553
_cell_length_c                        8.9055
_cell_angle_alpha                   89.9550
_cell_angle_beta                   105.0371
_cell_angle_gamma                   89.6406

loop_
_atom_site_label
_atom_site_type_symbol
_atom_site_fract_x
_atom_site_fract_y
_atom_site_fract_z
_atom_site_charge
  Ge     Ge        0.351599999999962    0.244500000000016    0.893900000000031  0.0000
  Ge     Ge        0.714315767838069    0.396854081922856    0.673195451106091  0.0000
  Ge     Ge        0.312264642981505    0.606294472671922    0.332536964317355  0.0000
  Ge     Ge        0.817744658266932    0.108781518001099    0.341332726206943  0.0000
  Si     Si        0.651933297584966    0.250542058919037    0.107250866946259  0.0000
  Si     Si        0.665698805883785    0.760071667551145    0.108292986238925  0.0000
  Si     Si        0.371235252405434    0.755405139594295    0.901077673966314  0.0000
  Si     Si        0.864766485662579    0.747720770326693    0.890670475022483  0.0000
  Si     Si        0.158595975920284    0.747927703601208    0.101818109543821  0.0000
  Si     Si        0.152759579890867    0.257022359465676    0.114964056577347  0.0000
  Si     Si        0.864140684412754    0.254422113072420    0.909533087680962  0.0000
  Si     Si        0.318889907719604    0.402099766287181    0.327409135728779  0.0000
  Si     Si        0.712125705763313    0.603195785207840    0.670900726583965  0.0000
  Si     Si        0.812170532270448    0.904360578131228    0.328871714948002  0.0000
  Si     Si        0.208381567149750    0.892490079402540    0.667027195250651  0.0000
  Si     Si        0.218934275767454    0.094516539281273    0.673762777320172  0.0000
  Si     Si        0.412220882546271    0.399972955159879    0.689060657598692  0.0000
  Si     Si        0.616459203979102    0.405221951468168    0.307362343228520  0.0000
  Si     Si        0.615304225815458    0.607663305004398    0.314056884067632  0.0000
  Si     Si        0.415122696211756    0.601818834059984    0.694897099815350  0.0000
  Si     Si        0.912595087591216    0.900667677399218    0.688911976531172  0.0000
  Si     Si        0.110830438171774    0.900347007111579    0.309215909057960  0.0000
  Si     Si        0.120737491927014    0.101738795881078    0.316783496863039  0.0000
  Si     Si        0.923320786784163    0.101903814544538    0.705012471510490  0.0000
  O3     O3        0.498987171596436    0.228202393654216    0.030201198824600  0.0000
  O2     O2        0.519945317076777    0.781251930306789    0.996999446270574  0.0000
  O2     O2        0.018006163152710    0.729617198139491    0.980182207488511  0.0000
  O2     O2        0.994109997836659    0.276282402972618    0.047832644485024  0.0000
  O3     O3        0.333946359079761    0.153964995581589    0.773778753167757  0.0000
  O3     O3        0.699071778096144    0.180984528821102    0.244130852121679  0.0000
  O2     O2        0.701213441301479    0.838216946511911    0.233084006029584  0.0000
  O2     O2        0.321236009980131    0.828255141750394    0.767368954324981  0.0000
  O2     O2        0.821679939764319    0.668406200358842    0.770830876004959  0.0000
  O3     O3        0.185107328716438    0.671974138597565    0.228936425158651  0.0000
  O2     O2        0.209821671721538    0.334567285955498    0.234711010855832  0.0000
  O3     O3        0.838664358342625    0.329041650470818    0.778968161757007  0.0000
  O3     O3        0.343751894872850    0.341137365146247    0.792170418540245  0.0000
  O2     O2        0.665607301390831    0.348568124139937    0.180101653217229  0.0000
  O2     O2        0.671974282067103    0.668068714298805    0.198361493250163  0.0000
  O2     O2        0.370607977798804    0.660395358288823    0.822602185655870  0.0000
  O2     O2        0.850174884704561    0.839187271985173    0.797278174224203  0.0000
  O2     O2        0.160369329586595    0.841305775420351    0.186927650552991  0.0000
  O2     O2        0.180422639713181    0.164161539502600    0.205999547871314  0.0000
  O2     O2        0.882399259200051    0.160324471415649    0.834774803994780  0.0000
  O3     O3        0.217847632723270    0.253518427902636    0.973089692039886  0.0000
  O2     O2        0.736012217854640    0.246815979638932    0.979431169160641  0.0000
  O2     O2        0.773677947154073    0.753834544633569    0.009436168839510  0.0000
  O2     O2        0.276984528852352    0.749319068171499    0.016525076030309  0.0000
  O2     O2        0.464028644046456    0.377875771277998    0.301403311925138  0.0000
  O3     O3        0.563145333200245    0.366374205372245    0.705429340707406  0.0000
  O2     O2        0.565037086974379    0.628103238079980    0.689729464111962  0.0000
  O3     O3        0.465037707151005    0.637451897546918    0.305669239340510  0.0000
  O2     O2        0.955254160035985    0.881888158551705    0.295872366739337  0.0000
  O2     O2        0.065749360822958    0.871359821116055    0.701101990501239  0.0000
  O2     O2        0.076575542464947    0.121895654339262    0.704968461216234  0.0000
  O3     O3        0.969169152541943    0.130713023827631    0.303228019879360  0.0000
  O2     O2        0.327029676834433    0.395697658819503    0.509810966792419  0.0000
  O3     O3        0.709204363950177    0.387450465813958    0.478277176253256  0.0000
  O2     O2        0.709202552186323    0.614548325704977    0.489596815457400  0.0000
  O3     O3        0.315582610344229    0.615507326422165    0.526717086101534  0.0000
  O2     O2        0.824103341258324    0.893086786554386    0.512202769668650  0.0000
  O2     O2        0.198160127949079    0.878843884581299    0.484392907118236  0.0000
  O2     O2        0.209987369401848    0.111328217028191    0.492923445719612  0.0000
  O3     O3        0.828013726152840    0.121937212862508    0.536450328705275  0.0000
  O3     O3        0.278012080152236    0.499774989782036    0.270460585635042  0.0000
  O3     O3        0.750150396019015    0.504691414180794    0.725689094947843  0.0000
  O3     O3        0.770387464601194    0.003212786782547    0.282375065011127  0.0000
  O2     O2        0.249706494649891    0.992201139392055    0.714502281399383  0.0000
  O2     O2        0.415447128114480    0.500514600935112    0.746593940478454  0.0000
  O2     O2        0.618732201208217    0.507005841995785    0.259693548237020  0.0000
  O2     O2        0.908669763084857    0.000086436549934    0.747775599052001  0.0000
  O2     O2        0.128373944219474    0.001026858096802    0.264425078663699  0.0000
