data_c00601.vasp
_audit_creation_method             Generated by GULP
_audit_author_name                 Salvador R. G. Balestra
_symmetry_space_group_name_H-M     'P 1             '
_symmetry_Int_Tables_number        1

loop_
_symmetry_equiv_pos_site_id
_symmetry_equiv_pos_as_xyz
_cell_length_a                       10.2395
_cell_length_b                       15.2320
_cell_length_c                        8.9384
_cell_angle_alpha                   89.5880
_cell_angle_beta                   105.0515
_cell_angle_gamma                   89.8889

loop_
_atom_site_label
_atom_site_type_symbol
_atom_site_fract_x
_atom_site_fract_y
_atom_site_fract_z
_atom_site_charge
  Ge     Ge        0.351599999999962    0.244500000000016    0.893900000000031  0.0000
  Ge     Ge        0.279101907625923    0.403676362681830    0.320604506960952  0.0000
  Ge     Ge        0.696328105306933    0.597666114066762    0.665168362555929  0.0000
  Ge     Ge        0.884149135833192    0.096075045895229    0.687748772581870  0.0000
  Si     Si        0.652966841432941    0.245053741772469    0.103095075134965  0.0000
  Si     Si        0.651579770076619    0.751893680860301    0.094713509793237  0.0000
  Si     Si        0.357542879513993    0.761587221253881    0.886190487861234  0.0000
  Si     Si        0.862017879768362    0.736295793748395    0.891679144727691  0.0000
  Si     Si        0.157769417173780    0.753671271980084    0.101682091701959  0.0000
  Si     Si        0.138209981900255    0.256716596281402    0.098019376216050  0.0000
  Si     Si        0.848053112108077    0.252648574514224    0.890466595379710  0.0000
  Si     Si        0.677511226591742    0.391472091513895    0.663523869536259  0.0000
  Si     Si        0.295316907064408    0.607284189531505    0.328952600195852  0.0000
  Si     Si        0.793865804694366    0.895940883716555    0.320428518566970  0.0000
  Si     Si        0.189098641607776    0.897723566161066    0.658901337955973  0.0000
  Si     Si        0.187038087521829    0.103064280463045    0.663104279876434  0.0000
  Si     Si        0.781759548199323    0.096045926127077    0.327598046366468  0.0000
  Si     Si        0.379939454153488    0.403541421547608    0.686133038098334  0.0000
  Si     Si        0.585417764271266    0.396928207920967    0.304247848502018  0.0000
  Si     Si        0.597403497756440    0.598987459347960    0.304951110786616  0.0000
  Si     Si        0.392995521995546    0.606508508965155    0.684301213509097  0.0000
  Si     Si        0.892128774646159    0.890396282690941    0.679759178064190  0.0000
  Si     Si        0.094611638146329    0.902622440947205    0.303408037403838  0.0000
  Si     Si        0.085863084292664    0.103384024107512    0.310915163515087  0.0000
  O3     O3        0.521674615689523    0.227271474780029    0.968489715582890  0.0000
  O2     O2        0.513815595016112    0.777916590426643    0.970270682128516  0.0000
  O2     O2        0.017459783533728    0.728891601904828    0.984233662832879  0.0000
  O2     O2        0.008050987592217    0.271374568009442    0.953676350772536  0.0000
  O3     O3        0.306012382230210    0.159683499896025    0.764953808626345  0.0000
  O2     O2        0.675329967762620    0.161556828549541    0.219027733057755  0.0000
  O2     O2        0.685768596615294    0.828673909508591    0.221801606288747  0.0000
  O2     O2        0.310966686741370    0.840452852824955    0.762891291632970  0.0000
  O3     O3        0.828666652215549    0.653072501098295    0.782269587848296  0.0000
  O2     O2        0.192932691389071    0.679354101858179    0.233768347968981  0.0000
  O3     O3        0.153819454033296    0.337876313343002    0.213698146652072  0.0000
  O2     O2        0.789172001573033    0.323757407835167    0.756374691028310  0.0000
  O3     O3        0.321887158692998    0.345871068845033    0.802292264845125  0.0000
  O2     O2        0.643034500841371    0.334367523508658    0.193775304511724  0.0000
  O2     O2        0.637975211592524    0.659344568516693    0.176993064197617  0.0000
  O2     O2        0.335775436423521    0.668588254352544    0.797826922872822  0.0000
  O2     O2        0.833180658710709    0.823310011993340    0.783925204124108  0.0000
  O2     O2        0.149730029704642    0.846882888351671    0.181986311698612  0.0000
  O2     O2        0.123548860725553    0.166618491513741    0.186926466828953  0.0000
  O3     O3        0.823769000558295    0.157224159616699    0.815645188784510  0.0000
  O3     O3        0.271070111960316    0.245584381908962    0.038793852930052  0.0000
  O2     O2        0.780733471839733    0.258622023094773    0.032636811216054  0.0000
  O2     O2        0.769711074740824    0.740109493867349    0.010648902204504  0.0000
  O2     O2        0.274006615338685    0.760554463860853    0.013630835663196  0.0000
  O3     O3        0.430239286487117    0.373696149297436    0.284136709714959  0.0000
  O2     O2        0.530887241232266    0.368959487209842    0.689903699275574  0.0000
  O3     O3        0.545199816587549    0.634429836070384    0.693403770928305  0.0000
  O2     O2        0.446604505415463    0.622754329086446    0.313512280140649  0.0000
  O2     O2        0.938757098676816    0.878440133288101    0.287292229882918  0.0000
  O2     O2        0.048781213664235    0.866987284665490    0.692079655630193  0.0000
  O3     O3        0.046503383158263    0.130490561888632    0.697475768750739  0.0000
  O2     O2        0.932357917572893    0.118010226199959    0.315998416711477  0.0000
  O3     O3        0.285836227071008    0.392865765719616    0.513997288378810  0.0000
  O2     O2        0.670003419763965    0.383163970524626    0.481765768959127  0.0000
  O3     O3        0.697084160006690    0.611874289083041    0.473208010700117  0.0000
  O2     O2        0.298565681036921    0.616006248315508    0.509745670325669  0.0000
  O2     O2        0.804805394261061    0.881717987089241    0.501910705979300  0.0000
  O2     O2        0.182601056671687    0.883374368903947    0.478380136804756  0.0000
  O2     O2        0.180702469198919    0.121157134681624    0.482280447720851  0.0000
  O3     O3        0.778911318949855    0.108024520426860    0.503448154413398  0.0000
  O3     O3        0.244188578990851    0.512148762838448    0.267981381237469  0.0000
  O3     O3        0.719700997978478    0.488750949840110    0.717876581420354  0.0000
  O2     O2        0.744944265123579    0.995617549566188    0.273854113051395  0.0000
  O2     O2        0.212923582248253    0.999689746580944    0.701218382595857  0.0000
  O2     O2        0.388365739713406    0.505363378229532    0.737602204284762  0.0000
  O2     O2        0.601388698404828    0.497598555381794    0.253708556418460  0.0000
  O3     O3        0.881832118672776    0.987274991697817    0.740668571137800  0.0000
  O2     O2        0.107492072580950    0.004278100279363    0.259962635475901  0.0000
