data_c00670.vasp
_audit_creation_method             Generated by GULP
_audit_author_name                 Salvador R. G. Balestra
_symmetry_space_group_name_H-M     'P 1             '
_symmetry_Int_Tables_number        1

loop_
_symmetry_equiv_pos_site_id
_symmetry_equiv_pos_as_xyz
_cell_length_a                       10.1716
_cell_length_b                       15.2560
_cell_length_c                        8.9480
_cell_angle_alpha                   90.0046
_cell_angle_beta                   105.2557
_cell_angle_gamma                   89.7276

loop_
_atom_site_label
_atom_site_type_symbol
_atom_site_fract_x
_atom_site_fract_y
_atom_site_fract_z
_atom_site_charge
  Ge     Ge        0.351599999999962    0.244500000000016    0.893900000000031  0.0000
  Ge     Ge        0.281137645508424    0.402618026037648    0.319670749879166  0.0000
  Ge     Ge        0.380330582645163    0.608219785165198    0.683881684049497  0.0000
  Ge     Ge        0.877954757372391    0.899875069855388    0.685985772253948  0.0000
  Si     Si        0.655760419722463    0.250298569155304    0.104366216558082  0.0000
  Si     Si        0.647908811781209    0.753013462657124    0.100566594205200  0.0000
  Si     Si        0.350218124780326    0.765365011264705    0.891833501720416  0.0000
  Si     Si        0.849953174032037    0.741307503070774    0.892453528709994  0.0000
  Si     Si        0.146910509271875    0.753812494267883    0.098002116802611  0.0000
  Si     Si        0.141713715516863    0.253869128806409    0.101550529032024  0.0000
  Si     Si        0.850305356258700    0.261339494337301    0.887821940111565  0.0000
  Si     Si        0.678666885402600    0.401203879110540    0.666714383112716  0.0000
  Si     Si        0.685661672655798    0.605595563371919    0.665693482416642  0.0000
  Si     Si        0.281886768999680    0.604743482471774    0.320653022016123  0.0000
  Si     Si        0.778050050821868    0.902294970916604    0.323768866472781  0.0000
  Si     Si        0.182913136264645    0.898933092782069    0.663190400269842  0.0000
  Si     Si        0.179886364371471    0.104533742834551    0.662418128684539  0.0000
  Si     Si        0.780967215753885    0.101260511001882    0.325598854040469  0.0000
  Si     Si        0.378662060482555    0.404561403682002    0.687777513645444  0.0000
  Si     Si        0.591026809794879    0.400191604971845    0.309892963066919  0.0000
  Si     Si        0.590191207159076    0.602875654547856    0.313573774167643  0.0000
  Si     Si        0.086075005959047    0.901586006376583    0.311583403711203  0.0000
  Si     Si        0.084546617839879    0.102546043257265    0.308593398371308  0.0000
  Si     Si        0.880428607281398    0.105367576341393    0.684561369354888  0.0000
  O3     O3        0.524008483827178    0.232323695060857    0.968299899515564  0.0000
  O2     O2        0.511585501490091    0.771348629488928    0.966846743512366  0.0000
  O2     O2        0.011510644577736    0.732257678830949    0.965267305249865  0.0000
  O2     O2        0.012169556431337    0.271616868549464    0.956646883230514  0.0000
  O3     O3        0.301158089563927    0.157863813881994    0.768999907252243  0.0000
  O2     O2        0.673852408514962    0.170426304818974    0.227124275306236  0.0000
  O2     O2        0.673722872123567    0.836495664070765    0.213774009395118  0.0000
  O2     O2        0.309030303108145    0.845704732839965    0.771125818606550  0.0000
  O2     O2        0.808820124727231    0.661333481055936    0.771606676059050  0.0000
  O2     O2        0.177789148259736    0.674067500263455    0.218182076282996  0.0000
  O3     O3        0.156581018463753    0.332516427141104    0.222671694218480  0.0000
  O2     O2        0.797489442648699    0.344180940092917    0.777146374687742  0.0000
  O3     O3        0.317221508575797    0.341761843276966    0.793299826870213  0.0000
  O2     O2        0.650408315483865    0.341444129596886    0.193857203279664  0.0000
  O2     O2        0.636356688571386    0.664476220632463    0.193011627858075  0.0000
  O3     O3        0.314584592043957    0.675032672671133    0.800435769670012  0.0000
  O3     O3        0.815186833002303    0.833383422398551    0.805093708192433  0.0000
  O2     O2        0.128626761518365    0.842895246875916    0.185199541282063  0.0000
  O2     O2        0.130228175612545    0.161828303728451    0.185067768948911  0.0000
  O2     O2        0.818628186534614    0.172607637524822    0.786633100159339  0.0000
  O3     O3        0.276305452955934    0.247660542422132    0.043196103852655  0.0000
  O2     O2        0.783188105345772    0.256375163976634    0.030284589972429  0.0000
  O2     O2        0.773075654911677    0.736653155910139    0.027064049093515  0.0000
  O2     O2        0.272207210588075    0.770237493021957    0.025171041989906  0.0000
  O3     O3        0.436005540443989    0.373432238127815    0.288885762081782  0.0000
  O2     O2        0.532897628401255    0.373572524653827    0.690557120705546  0.0000
  O3     O3        0.544860750725510    0.639813629214712    0.691740612755379  0.0000
  O2     O2        0.436299802934424    0.624689389754151    0.314467458506566  0.0000
  O2     O2        0.930173266199626    0.884650690869263    0.308917457200929  0.0000
  O3     O3        0.043616412717376    0.868641897772350    0.697343880439619  0.0000
  O2     O2        0.036786914799922    0.131932782057733    0.696363626637142  0.0000
  O2     O2        0.926942563848503    0.120170015304767    0.296237503866947  0.0000
  O3     O3        0.287074308236331    0.400401150728338    0.512816198395228  0.0000
  O2     O2        0.677343112297780    0.385359435745883    0.487865438809811  0.0000
  O2     O2        0.686513091982675    0.618449417834359    0.486180066939965  0.0000
  O3     O3        0.277444233359803    0.612509289841549    0.497205045509548  0.0000
  O3     O3        0.776551150193568    0.888097125093459    0.499453751966141  0.0000
  O2     O2        0.178836685145127    0.879874128197256    0.483786752167557  0.0000
  O2     O2        0.173007769977194    0.124055568287271    0.482598348132076  0.0000
  O2     O2        0.790195333024591    0.111395514468374    0.506983805697163  0.0000
  O3     O3        0.240835714693588    0.508602006621456    0.255398986934390  0.0000
  O2     O2        0.706059029981993    0.503066038688416    0.710095357393034  0.0000
  O2     O2        0.733486239581649    0.002453981264380    0.272970722231637  0.0000
  O2     O2        0.204228784916581    0.001714690629321    0.697752587149631  0.0000
  O3     O3        0.381853247900641    0.502535415847158    0.751643841051668  0.0000
  O2     O2        0.601043570905762    0.501994793257557    0.263623962057643  0.0000
  O3     O3        0.873424971205486    0.007521713914495    0.744541273284123  0.0000
  O2     O2        0.107465431270656    0.001836070100756    0.267631989646442  0.0000
