data_c00614.vasp
_audit_creation_method             Generated by GULP
_audit_author_name                 Salvador R. G. Balestra
_symmetry_space_group_name_H-M     'P 1             '
_symmetry_Int_Tables_number        1

loop_
_symmetry_equiv_pos_site_id
_symmetry_equiv_pos_as_xyz
_cell_length_a                       10.2659
_cell_length_b                       15.2275
_cell_length_c                        8.9113
_cell_angle_alpha                   90.6125
_cell_angle_beta                   104.9297
_cell_angle_gamma                   89.9283

loop_
_atom_site_label
_atom_site_type_symbol
_atom_site_fract_x
_atom_site_fract_y
_atom_site_fract_z
_atom_site_charge
  Ge     Ge        0.351599999999962    0.244500000000016    0.893900000000031  0.0000
  Ge     Ge        0.284901366271867    0.390834121699887    0.328800160639111  0.0000
  Ge     Ge        0.787649204172777    0.887731254467255    0.330665761511260  0.0000
  Ge     Ge        0.194928590306842    0.899665957578580    0.665504592547400  0.0000
  Si     Si        0.651362295701949    0.237424572495216    0.101225442798252  0.0000
  Si     Si        0.650166069370209    0.740127193764580    0.099907550301377  0.0000
  Si     Si        0.356367712109793    0.755976447105139    0.885020734785462  0.0000
  Si     Si        0.854818307718991    0.738214385082717    0.890603400246669  0.0000
  Si     Si        0.149122281962840    0.740129717486111    0.091651526493301  0.0000
  Si     Si        0.137681403048576    0.246734524391365    0.099808244992563  0.0000
  Si     Si        0.848582739403699    0.253086196621904    0.886500015387353  0.0000
  Si     Si        0.684262456789031    0.396329107741187    0.668467540190275  0.0000
  Si     Si        0.687932790486990    0.599829158956706    0.659280294523171  0.0000
  Si     Si        0.293108522381725    0.595653847381040    0.312672013548458  0.0000
  Si     Si        0.182152887755087    0.105321860241568    0.653421173732306  0.0000
  Si     Si        0.782485341173684    0.091128718818435    0.321195627874315  0.0000
  Si     Si        0.385403247180797    0.403358699117340    0.693784055719188  0.0000
  Si     Si        0.590780130654511    0.387494187639402    0.311938402269653  0.0000
  Si     Si        0.594020101170460    0.590847538876721    0.302772075984640  0.0000
  Si     Si        0.388259218484149    0.603854778274732    0.672187289192170  0.0000
  Si     Si        0.890493213974166    0.895536908539590    0.692193418690981  0.0000
  Si     Si        0.093289195859762    0.890219679391431    0.305063275017907  0.0000
  Si     Si        0.079611747077924    0.092227724980092    0.296623649075349  0.0000
  Si     Si        0.885448036207762    0.097381374482010    0.679664530226672  0.0000
  O3     O3        0.517443934825875    0.216891755887794    0.970775176163838  0.0000
  O2     O2        0.512675229184196    0.757393988853580    0.972366661830097  0.0000
  O2     O2        0.009552459696880    0.715351719622185    0.969786790146720  0.0000
  O2     O2        0.007191817868917    0.267877670206360    0.960802244152682  0.0000
  O3     O3        0.291728980841987    0.174141388121638    0.739898615663328  0.0000
  O2     O2        0.674013990782984    0.159227262496718    0.226089340044610  0.0000
  O3     O3        0.668813136556986    0.815862091738160    0.228357588750586  0.0000
  O3     O3        0.324354304810434    0.842044864242204    0.783042900085449  0.0000
  O2     O2        0.802087616387515    0.663093326525514    0.760694633067120  0.0000
  O2     O2        0.183853371607025    0.662748121873796    0.216522988755899  0.0000
  O3     O3        0.158390866265251    0.322493299215235    0.229411736030658  0.0000
  O2     O2        0.796597022000117    0.336178332634217    0.777711354694007  0.0000
  O3     O3        0.338415936648340    0.349995529104434    0.821716494072529  0.0000
  O2     O2        0.645875101633936    0.328769761600462    0.191877145615533  0.0000
  O2     O2        0.650935627517241    0.645851592346115    0.181427357507758  0.0000
  O2     O2        0.323918141635333    0.670697284894876    0.772201000530204  0.0000
  O2     O2        0.841964498695194    0.834483804533012    0.814376817239193  0.0000
  O2     O2        0.140097576821920    0.832110284232244    0.177650431304606  0.0000
  O2     O2        0.125680736447838    0.151968281865033    0.173665108964360  0.0000
  O2     O2        0.823837202264044    0.163169131301464    0.785265501691598  0.0000
  O3     O3        0.269078813063887    0.241574918666403    0.036577543597164  0.0000
  O2     O2        0.775146465163087    0.244928867931157    0.023092602312128  0.0000
  O2     O2        0.773659710689487    0.740389195999983    0.021183513656983  0.0000
  O2     O2        0.265639651154303    0.751078310877664    0.005212121076916  0.0000
  O3     O3        0.437336705194815    0.361542334154545    0.294937883562784  0.0000
  O2     O2        0.539016644057471    0.376015783930058    0.697187251038546  0.0000
  O2     O2        0.544859395866447    0.626771546693989    0.689076660353437  0.0000
  O2     O2        0.438654388335525    0.616148186371548    0.283420865154537  0.0000
  O3     O3        0.945475007276394    0.861227321261361    0.312390775491137  0.0000
  O3     O3        0.040952147473085    0.868202756616060    0.690677838625207  0.0000
  O2     O2        0.036956121697467    0.127690025944887    0.684665928680178  0.0000
  O2     O2        0.926789171490874    0.114930449815342    0.293207483791757  0.0000
  O3     O3        0.292370736018402    0.383442763487106    0.523058848996107  0.0000
  O2     O2        0.678265465810755    0.374292462409650    0.489172262864407  0.0000
  O2     O2        0.681333158046576    0.612406561941027    0.477852511995063  0.0000
  O2     O2        0.302548141631675    0.609805314787304    0.494653651061292  0.0000
  O3     O3        0.789994995084929    0.882213591184136    0.524352381905114  0.0000
  O3     O3        0.194589489692944    0.881731715567193    0.473511019817811  0.0000
  O2     O2        0.172993336169016    0.109198644836318    0.469742488443453  0.0000
  O2     O2        0.791483573598566    0.099787183891671    0.504574040958897  0.0000
  O3     O3        0.248619103459601    0.497145456284951    0.265295707830224  0.0000
  O2     O2        0.722566280477946    0.498597274038077    0.705588068621597  0.0000
  O3     O3        0.741975630728680    0.992808621438169    0.266172421389493  0.0000
  O3     O3        0.224971153299532    0.008606366686079    0.714062321818852  0.0000
  O2     O2        0.377801012661984    0.506283503846926    0.734173338529011  0.0000
  O2     O2        0.603681233357363    0.488296107148372    0.264457084324099  0.0000
  O2     O2        0.887923608925177    0.998237604230986    0.743562825561179  0.0000
  O2     O2        0.090879745312045    0.991062445346946    0.248772606098584  0.0000
