data_c00600.vasp
_audit_creation_method             Generated by GULP
_audit_author_name                 Salvador R. G. Balestra
_symmetry_space_group_name_H-M     'P 1             '
_symmetry_Int_Tables_number        1

loop_
_symmetry_equiv_pos_site_id
_symmetry_equiv_pos_as_xyz
_cell_length_a                       10.3123
_cell_length_b                       15.2208
_cell_length_c                        8.9224
_cell_angle_alpha                   90.6960
_cell_angle_beta                   105.0880
_cell_angle_gamma                   89.9358

loop_
_atom_site_label
_atom_site_type_symbol
_atom_site_fract_x
_atom_site_fract_y
_atom_site_fract_z
_atom_site_charge
  Ge     Ge        0.351599999999962    0.244500000000016    0.893900000000031  0.0000
  Ge     Ge        0.287138773168679    0.385461833193446    0.326343057661843  0.0000
  Ge     Ge        0.692763535062294    0.597138791844030    0.652242776996806  0.0000
  Ge     Ge        0.087260988806892    0.090108742810510    0.295449944780825  0.0000
  Si     Si        0.651078338931659    0.230994206609642    0.097615912284948  0.0000
  Si     Si        0.634855230387247    0.742874428089384    0.091017533089961  0.0000
  Si     Si        0.339983894876117    0.753980265635746    0.884125695513235  0.0000
  Si     Si        0.844418558819862    0.738525870558290    0.886104351390502  0.0000
  Si     Si        0.139652991080123    0.734303124283123    0.097647113958509  0.0000
  Si     Si        0.137009312423354    0.247076898034095    0.094506479342855  0.0000
  Si     Si        0.847424250322845    0.247983106253885    0.882990604614846  0.0000
  Si     Si        0.684837841312649    0.391301739567608    0.663870985266225  0.0000
  Si     Si        0.293035851015264    0.590085537793799    0.313534969500816  0.0000
  Si     Si        0.794870550921846    0.882880966957775    0.324880552861815  0.0000
  Si     Si        0.187594336727483    0.896137794581353    0.667651033223130  0.0000
  Si     Si        0.182646683371135    0.098843530855003    0.656992551935483  0.0000
  Si     Si        0.783597006412391    0.085827669002126    0.317954863999849  0.0000
  Si     Si        0.389836023313819    0.400917741742268    0.688653724356042  0.0000
  Si     Si        0.590136319471491    0.384397916563855    0.304859597448018  0.0000
  Si     Si        0.591348796986175    0.586769066655918    0.290747663386204  0.0000
  Si     Si        0.391632068668291    0.603825965765021    0.669384245718015  0.0000
  Si     Si        0.890279409320147    0.891485817826082    0.683122197803212  0.0000
  Si     Si        0.094337705263971    0.885685141832757    0.308785676265119  0.0000
  Si     Si        0.881739423021330    0.093289635715739    0.672437487526020  0.0000
  O3     O3        0.516196726690408    0.215153219676017    0.967341851436362  0.0000
  O2     O2        0.486167192357809    0.770152771006643    0.997467078933562  0.0000
  O2     O2        0.986081503902202    0.721097736417044    0.005714838070621  0.0000
  O2     O2        0.004105147510968    0.267567088123068    0.958787831841206  0.0000
  O3     O3        0.289481931889875    0.163119771622122    0.760794416937717  0.0000
  O2     O2        0.670454668119616    0.147351420556455    0.211606407792708  0.0000
  O2     O2        0.685081723423881    0.815881310524377    0.225907793762173  0.0000
  O2     O2        0.305369907912845    0.838003540682084    0.772736290037977  0.0000
  O3     O3        0.819833698462004    0.662974666173422    0.756717712428423  0.0000
  O2     O2        0.181375228937773    0.651171255689727    0.207161814034495  0.0000
  O3     O3        0.157361001671180    0.316727445341704    0.235210720460445  0.0000
  O2     O2        0.794174154630258    0.326266819248910    0.764980366254210  0.0000
  O3     O3        0.339129446120067    0.347613020173534    0.813370207446313  0.0000
  O2     O2        0.648775384602047    0.320666041462366    0.194613832883504  0.0000
  O2     O2        0.634874611119082    0.646533052262984    0.164570248664316  0.0000
  O2     O2        0.331206075023222    0.666089479625420    0.780309958778946  0.0000
  O2     O2        0.838464386509491    0.832912508352697    0.803383942436056  0.0000
  O2     O2        0.157604515883009    0.820640453027821    0.205714190037330  0.0000
  O3     O3        0.132436086778160    0.149253513959256    0.155820975420150  0.0000
  O2     O2        0.827864530613409    0.155885926850049    0.788230944614575  0.0000
  O3     O3        0.269331159926421    0.256047683476662    0.035089218577215  0.0000
  O2     O2        0.773826094527861    0.240891619771406    0.019060163482804  0.0000
  O2     O2        0.728166254739773    0.737312050524037    0.974494207745144  0.0000
  O2     O2        0.231598832654261    0.743781589478095    0.980962682750435  0.0000
  O3     O3        0.439505846525974    0.355321533536248    0.294779431438316  0.0000
  O2     O2        0.539182745088435    0.367896012140831    0.687704031565942  0.0000
  O3     O3        0.541108888707621    0.633975353108146    0.676229958948998  0.0000
  O2     O2        0.440616390344363    0.612447633297877    0.294317089381174  0.0000
  O2     O2        0.938331873306344    0.862457181430519    0.292911165054124  0.0000
  O2     O2        0.046168227828837    0.869962474550278    0.700329267794739  0.0000
  O2     O2        0.033857092524419    0.119465180332566    0.676279362998239  0.0000
  O3     O3        0.923507381048654    0.113439652490359    0.288801662388214  0.0000
  O3     O3        0.292727905744478    0.381992546956506    0.520247868853427  0.0000
  O2     O2        0.680159662739580    0.379427192911816    0.482157294503066  0.0000
  O3     O3        0.690577385584471    0.602603212967277    0.458536994053525  0.0000
  O2     O2        0.296774786335385    0.606300247900899    0.494136375774282  0.0000
  O2     O2        0.804351563175246    0.870748937939814    0.507085603457264  0.0000
  O2     O2        0.179259427413204    0.878555491141852    0.487372867941861  0.0000
  O3     O3        0.184912525720988    0.112134086973565    0.480163686227278  0.0000
  O2     O2        0.787850631098796    0.103049598475012    0.498390986455129  0.0000
  O3     O3        0.252796891024135    0.491445442775684    0.262513781700199  0.0000
  O3     O3        0.723648293015646    0.490492032701157    0.714892041679079  0.0000
  O2     O2        0.752204908215011    0.982898665758325    0.276256470287321  0.0000
  O2     O2        0.219843252483046    0.998285158510660    0.707199443338991  0.0000
  O2     O2        0.395051097781474    0.504356722509691    0.730360229118363  0.0000
  O2     O2        0.594649522652700    0.483870277768308    0.243753297514579  0.0000
  O2     O2        0.874063575625268    0.993208083938731    0.726804684993796  0.0000
  O3     O3        0.105546372332405    0.982021415421983    0.247655907912183  0.0000
