data_c00672.vasp
_audit_creation_method             Generated by GULP
_audit_author_name                 Salvador R. G. Balestra
_symmetry_space_group_name_H-M     'P 1             '
_symmetry_Int_Tables_number        1

loop_
_symmetry_equiv_pos_site_id
_symmetry_equiv_pos_as_xyz
_cell_length_a                       10.1747
_cell_length_b                       15.2351
_cell_length_c                        8.9256
_cell_angle_alpha                   89.8436
_cell_angle_beta                   104.8251
_cell_angle_gamma                   90.1238

loop_
_atom_site_label
_atom_site_type_symbol
_atom_site_fract_x
_atom_site_fract_y
_atom_site_fract_z
_atom_site_charge
  Ge     Ge        0.351599999999962    0.244500000000016    0.893900000000031  0.0000
  Ge     Ge        0.308924005994183    0.391362997856655    0.330284523813930  0.0000
  Ge     Ge        0.415442231014602    0.604258865058025    0.683536456081747  0.0000
  Ge     Ge        0.116654919423959    0.097755638532550    0.292433799480186  0.0000
  Si     Si        0.642069924672572    0.234391267113037    0.105396799951166  0.0000
  Si     Si        0.681890950109872    0.748975842046994    0.098378457998322  0.0000
  Si     Si        0.383585355976297    0.762033757147168    0.894951121681342  0.0000
  Si     Si        0.883365034026411    0.739032501773695    0.883288507711123  0.0000
  Si     Si        0.175771243458698    0.742558327641651    0.095273867168397  0.0000
  Si     Si        0.132929977575474    0.259069784689193    0.085482272434898  0.0000
  Si     Si        0.834450666217560    0.247840954148688    0.883850814830481  0.0000
  Si     Si        0.714111389068744    0.401227096123575    0.653604191731633  0.0000
  Si     Si        0.722632531846049    0.598301075594871    0.661848029907287  0.0000
  Si     Si        0.316964443784345    0.600138928101166    0.321512469540338  0.0000
  Si     Si        0.816695662143515    0.895504579956362    0.328896626160172  0.0000
  Si     Si        0.217576555675862    0.897152801586219    0.663208688871392  0.0000
  Si     Si        0.211391083547569    0.101959010428532    0.657938173855007  0.0000
  Si     Si        0.811859565052409    0.094007338138459    0.320199457013816  0.0000
  Si     Si        0.407613773366542    0.401358703481866    0.683094569749702  0.0000
  Si     Si        0.618296942620717    0.392998593942363    0.302543317587382  0.0000
  Si     Si        0.617550317878461    0.595177747620999    0.299966132573647  0.0000
  Si     Si        0.915655203758571    0.896483543388566    0.684453106693540  0.0000
  Si     Si        0.123896788452319    0.894701058018164    0.310030972194651  0.0000
  Si     Si        0.913913772968497    0.098575031181235    0.682516942024685  0.0000
  O3     O3        0.483780815342308    0.214658540872366    0.046745231367975  0.0000
  O2     O2        0.543404973645508    0.773798030252852    0.973910400962513  0.0000
  O2     O2        0.041326977794542    0.722315625972170    0.961483857733233  0.0000
  O2     O2        0.970920472131579    0.267224981062272    0.015206450910292  0.0000
  O3     O3        0.328079524965608    0.161533841663719    0.760052602557572  0.0000
  O2     O2        0.695303386940417    0.158842121328056    0.231030494874862  0.0000
  O2     O2        0.715281432136653    0.826178035007612    0.225151335876948  0.0000
  O2     O2        0.337892157039787    0.842309723102993    0.774193887233133  0.0000
  O2     O2        0.838753861362679    0.663770631831631    0.754609871944081  0.0000
  O2     O2        0.203319177238127    0.658762549771892    0.207412033186128  0.0000
  O3     O3        0.177977981734037    0.332350503328046    0.216180448648433  0.0000
  O2     O2        0.802515976134085    0.330543750440634    0.768238058293388  0.0000
  O3     O3        0.402333722853434    0.340826282710223    0.824519944726358  0.0000
  O2     O2        0.671415312641360    0.330023310949110    0.186132415482799  0.0000
  O2     O2        0.672671350721062    0.657041610191671    0.184288700566041  0.0000
  O3     O3        0.355708274831095    0.671113761196771    0.805130166594947  0.0000
  O2     O2        0.861445815383524    0.834359108876841    0.800795746860798  0.0000
  O2     O2        0.159274377147376    0.828109043063380    0.190905631516144  0.0000
  O3     O3        0.171142307483735    0.164180273109535    0.165146216961904  0.0000
  O2     O2        0.848361773518564    0.160282899432095    0.788526553360967  0.0000
  O3     O3        0.208069300209501    0.270858613987121    0.950692674317829  0.0000
  O2     O2        0.710358606516203    0.232166382450167    0.961123551831133  0.0000
  O2     O2        0.801162963197340    0.737442747757030    0.013565189394149  0.0000
  O2     O2        0.301901340949290    0.763679344706271    0.025385855097740  0.0000
  O3     O3        0.459855119513486    0.371697283309858    0.281917596364535  0.0000
  O2     O2        0.559542156250518    0.410222082733824    0.660647197036309  0.0000
  O3     O3        0.589899588673577    0.614604287665773    0.721934833763274  0.0000
  O2     O2        0.457270588828743    0.609238330301259    0.269593837347175  0.0000
  O2     O2        0.963504335868725    0.892566847668924    0.295113534570963  0.0000
  O2     O2        0.075305127579711    0.877979166186022    0.705197112687234  0.0000
  O2     O2        0.074050720739921    0.119356956969020    0.714691480243974  0.0000
  O3     O3        0.942986595699136    0.108634568972064    0.256930521086028  0.0000
  O3     O3        0.317528993309594    0.364030755271985    0.521055264381240  0.0000
  O2     O2        0.708299362885541    0.374013602330778    0.477254750989837  0.0000
  O2     O2        0.691971827925622    0.617069352281525    0.477817800337485  0.0000
  O3     O3        0.341315280894467    0.634289161485623    0.494990282295947  0.0000
  O2     O2        0.831163261943837    0.874854590868123    0.509643447016408  0.0000
  O2     O2        0.205491489140921    0.870074748128381    0.485504850962676  0.0000
  O3     O3        0.189664360848417    0.128910478048393    0.480899937614716  0.0000
  O2     O2        0.843822041825890    0.115219273011664    0.502624075505991  0.0000
  O3     O3        0.267706727971331    0.500762577350439    0.308074998584999  0.0000
  O2     O2        0.778740289922281    0.498287403349804    0.693384312606899  0.0000
  O2     O2        0.758266367690907    0.993729803998001    0.290729898285056  0.0000
  O2     O2        0.252463116121274    0.999952005793532    0.682170449784361  0.0000
  O3     O3        0.364463206856093    0.499305454545444    0.714007700519643  0.0000
  O2     O2        0.641711782462840    0.494022777897840    0.259999075211785  0.0000
  O2     O2        0.893061480195266    0.997391138950190    0.726552914054763  0.0000
  O3     O3        0.163107692061369    0.991380986167855    0.267264986765322  0.0000
