data_c00688.vasp
_audit_creation_method             Generated by GULP
_audit_author_name                 Salvador R. G. Balestra
_symmetry_space_group_name_H-M     'P 1             '
_symmetry_Int_Tables_number        1

loop_
_symmetry_equiv_pos_site_id
_symmetry_equiv_pos_as_xyz
_cell_length_a                       10.2461
_cell_length_b                       15.1712
_cell_length_c                        8.9622
_cell_angle_alpha                   89.9067
_cell_angle_beta                   104.8183
_cell_angle_gamma                   89.9708

loop_
_atom_site_label
_atom_site_type_symbol
_atom_site_fract_x
_atom_site_fract_y
_atom_site_fract_z
_atom_site_charge
  Ge     Ge        0.351599999999962    0.244500000000016    0.893900000000031  0.0000
  Ge     Ge        0.681491626810310    0.396072485212998    0.661946665288901  0.0000
  Ge     Ge        0.684760084117922    0.611634253690885    0.659995239983592  0.0000
  Ge     Ge        0.379712992523261    0.610431855847517    0.683300164713510  0.0000
  Si     Si        0.648699979974401    0.248140093028999    0.099073982993818  0.0000
  Si     Si        0.635939116650148    0.760514554600486    0.097322513357513  0.0000
  Si     Si        0.342979390691785    0.764437010915307    0.894514293295923  0.0000
  Si     Si        0.846984500401037    0.748883107317805    0.894502574731539  0.0000
  Si     Si        0.142865767761758    0.751790647526767    0.104871680146671  0.0000
  Si     Si        0.148453407591558    0.255780077866879    0.110409717617340  0.0000
  Si     Si        0.856806621879056    0.259848292853364    0.896791574162616  0.0000
  Si     Si        0.284010499681658    0.403172365540878    0.328628362253814  0.0000
  Si     Si        0.280410181696237    0.603258017512653    0.328359672605199  0.0000
  Si     Si        0.780112306951960    0.902511647068495    0.329918171420466  0.0000
  Si     Si        0.175615014982836    0.899827675218499    0.666966213787741  0.0000
  Si     Si        0.180632045020151    0.103146561369466    0.666991826225827  0.0000
  Si     Si        0.783319821877646    0.105149864309013    0.333011287216028  0.0000
  Si     Si        0.382786687359693    0.400552870813777    0.684656445238484  0.0000
  Si     Si        0.583850167143353    0.402050978008762    0.300909329879891  0.0000
  Si     Si        0.584455635587061    0.604441454930069    0.304738982621817  0.0000
  Si     Si        0.877447481666546    0.901736379985367    0.685550937474220  0.0000
  Si     Si        0.081512185008159    0.901814269488585    0.312710577185579  0.0000
  Si     Si        0.083857899279296    0.102760024266575    0.312392880402043  0.0000
  Si     Si        0.882266398949375    0.105635562315888    0.687733009429542  0.0000
  O3     O3        0.520751836402491    0.222557150655545    0.965868144271203  0.0000
  O2     O2        0.499554648599420    0.785629011713321    0.971503450876260  0.0000
  O2     O2        0.001813156894115    0.735227486759263    0.984108741334445  0.0000
  O2     O2        0.014590139364903    0.274534978929171    0.976106105124093  0.0000
  O3     O3        0.299492413479312    0.160028297201706    0.765075980832787  0.0000
  O2     O2        0.676405942193576    0.172254498768045    0.230426080979574  0.0000
  O2     O2        0.670492033868950    0.837572355058599    0.225472716866051  0.0000
  O2     O2        0.293525905890405    0.838582737764582    0.763807001164464  0.0000
  O3     O3        0.815658749668656    0.672026629823873    0.771123772001619  0.0000
  O2     O2        0.176366611312939    0.666554328179798    0.213862213595460  0.0000
  O2     O2        0.172595899167717    0.336947318977243    0.231037758839255  0.0000
  O3     O3        0.813014508451573    0.335578296439922    0.771648755838185  0.0000
  O3     O3        0.318151525712498    0.343619273983195    0.796932110171891  0.0000
  O2     O2        0.621683730765419    0.341349461997036    0.172216384222392  0.0000
  O2     O2        0.614251342928284    0.667776936353648    0.174524231495713  0.0000
  O3     O3        0.319501506429034    0.669635596744502    0.815253189341218  0.0000
  O2     O2        0.821718617037253    0.842678584835283    0.803970944608311  0.0000
  O2     O2        0.137907162078127    0.839082356614894    0.202688899202897  0.0000
  O2     O2        0.135404678949552    0.164820930504664    0.196752066522166  0.0000
  O2     O2        0.830091893119763    0.165902698346291    0.807190139415190  0.0000
  O3     O3        0.276123666934643    0.245253789386843    0.042878686257062  0.0000
  O2     O2        0.776091089758387    0.261429486037197    0.027960229581208  0.0000
  O2     O2        0.755035299674733    0.746331581276121    0.014471141790773  0.0000
  O2     O2        0.261676225819550    0.769117249354989    0.023819358294245  0.0000
  O2     O2        0.430750276983704    0.380525814899449    0.305047668139010  0.0000
  O3     O3        0.529866561298042    0.360359568755388    0.691164426343932  0.0000
  O1     O1        0.535753184866866    0.650792910205082    0.686095167787654  0.0000
  O2     O2        0.435941314064705    0.622212985878698    0.329702732846205  0.0000
  O2     O2        0.923232787034274    0.884589995990326    0.293163250798373  0.0000
  O2     O2        0.033531812441721    0.876534630766788    0.703585414109058  0.0000
  O2     O2        0.038888559376949    0.128525491748758    0.704012678307548  0.0000
  O2     O2        0.926796858777904    0.120845672901097    0.296870498179550  0.0000
  O2     O2        0.289312358059985    0.395235423819553    0.509052711048410  0.0000
  O3     O3        0.680434801228637    0.386067467776559    0.468677873020984  0.0000
  O3     O3        0.688837658185806    0.619625527086589    0.467677326722030  0.0000
  O3     O3        0.269894834078024    0.617419696748892    0.501196133022433  0.0000
  O2     O2        0.791658364298378    0.882985566927415    0.510171651578232  0.0000
  O2     O2        0.164340493653938    0.882344487278802    0.487364561600677  0.0000
  O2     O2        0.169080307927825    0.120352405020187    0.486570182598420  0.0000
  O2     O2        0.795102637462058    0.124721944286195    0.513042354434012  0.0000
  O2     O2        0.242060286379348    0.502890323419634    0.273196350084127  0.0000
  O1     O1        0.705676410858066    0.503706434121786    0.714581709136596  0.0000
  O2     O2        0.735703909463310    0.004222962183443    0.293373091546231  0.0000
  O2     O2        0.212741474036780    0.000872127010890    0.708199299156355  0.0000
  O3     O3        0.396480819064491    0.501145335484028    0.738416333270161  0.0000
  O2     O2        0.594590649730875    0.503689059449168    0.249719637588309  0.0000
  O2     O2        0.864250625646488    0.003719437381426    0.728386006049859  0.0000
  O2     O2        0.104296913437280    0.002055440627558    0.266111328096083  0.0000
