data_c00649.vasp
_audit_creation_method             Generated by GULP
_audit_author_name                 Salvador R. G. Balestra
_symmetry_space_group_name_H-M     'P 1             '
_symmetry_Int_Tables_number        1

loop_
_symmetry_equiv_pos_site_id
_symmetry_equiv_pos_as_xyz
_cell_length_a                       10.2361
_cell_length_b                       15.1972
_cell_length_c                        8.9460
_cell_angle_alpha                   89.7950
_cell_angle_beta                   104.9785
_cell_angle_gamma                   89.9218

loop_
_atom_site_label
_atom_site_type_symbol
_atom_site_fract_x
_atom_site_fract_y
_atom_site_fract_z
_atom_site_charge
  Ge     Ge        0.351599999999962    0.244500000000016    0.893900000000031  0.0000
  Ge     Ge        0.316375891415790    0.399124981474181    0.325491902802925  0.0000
  Ge     Ge        0.821257419709824    0.091577846605369    0.330910465547594  0.0000
  Ge     Ge        0.140049193574007    0.896907396004916    0.305708378205507  0.0000
  Si     Si        0.648774008190343    0.234268798262697    0.105510989285784  0.0000
  Si     Si        0.697664714381349    0.742465845425589    0.103025620851632  0.0000
  Si     Si        0.403550702524564    0.756005391037482    0.892625580253981  0.0000
  Si     Si        0.900018337120833    0.729413421151251    0.890366920822234  0.0000
  Si     Si        0.194179358528143    0.743881293026335    0.094327161322972  0.0000
  Si     Si        0.140561812438014    0.259844211524719    0.100184893058880  0.0000
  Si     Si        0.848846490638454    0.241747716409529    0.893987311749129  0.0000
  Si     Si        0.717381491054357    0.388097933876835    0.662149433840477  0.0000
  Si     Si        0.736322303562694    0.590695146372214    0.664574718209628  0.0000
  Si     Si        0.336900501148591    0.604977238435645    0.327707399720974  0.0000
  Si     Si        0.830876231101353    0.888677120061154    0.330573596125673  0.0000
  Si     Si        0.236071545231974    0.893125659542907    0.666341422315458  0.0000
  Si     Si        0.219057815682506    0.097463901381535    0.665561934561833  0.0000
  Si     Si        0.417526887140653    0.400093469679238    0.687812902738859  0.0000
  Si     Si        0.622126147155781    0.389650999687837    0.307078302011831  0.0000
  Si     Si        0.635796443598516    0.593350500170569    0.309359537827174  0.0000
  Si     Si        0.436806509720782    0.601532152850361    0.683292013903575  0.0000
  Si     Si        0.935665000039666    0.887593872836321    0.688223986898259  0.0000
  Si     Si        0.124576135173843    0.100461628921562    0.305619611810786  0.0000
  Si     Si        0.926355361427091    0.090904973628409    0.698044588514948  0.0000
  O3     O3        0.490904469229654    0.218797059569357    0.038563659885705  0.0000
  O2     O2        0.559245509716001    0.769588899850941    0.981125344669389  0.0000
  O2     O2        0.056040097400832    0.712762874389218    0.975943517736871  0.0000
  O2     O2        0.979563434996595    0.266684773178997    0.028473476730802  0.0000
  O3     O3        0.332643027659388    0.161581939663813    0.758442438091413  0.0000
  O3     O3        0.695752803318448    0.158880063859629    0.231408858979985  0.0000
  O2     O2        0.729264374083900    0.816902651283537    0.233764711320489  0.0000
  O2     O2        0.356630224462693    0.840137834657852    0.781968162658643  0.0000
  O2     O2        0.853989701140673    0.649699887659191    0.770137392229668  0.0000
  O2     O2        0.228429786816781    0.675710160728852    0.237601693921523  0.0000
  O3     O3        0.184288556813092    0.342366026957589    0.211086733389366  0.0000
  O2     O2        0.821636417966512    0.319349223390996    0.765869657597992  0.0000
  O3     O3        0.369934760846964    0.345349322942879    0.813748638517359  0.0000
  O2     O2        0.678173435020879    0.329364434521563    0.189916294941035  0.0000
  O2     O2        0.690424765406601    0.649074712120006    0.186161613134299  0.0000
  O2     O2        0.383863913616947    0.667397385124352    0.792602101235762  0.0000
  O2     O2        0.882154192782868    0.822523889926650    0.800367428892489  0.0000
  O3     O3        0.183276889489357    0.839609391832455    0.161707754697893  0.0000
  O2     O2        0.180026982538765    0.171669955831925    0.204293610251653  0.0000
  O2     O2        0.868495815339195    0.148716954920010    0.816540881566504  0.0000
  O3     O3        0.211726364703406    0.257620555627014    0.962379697718120  0.0000
  O2     O2        0.722387145618918    0.230851990579215    0.967196933303064  0.0000
  O2     O2        0.815389185526813    0.733458855222373    0.016917401452367  0.0000
  O2     O2        0.315464621748875    0.744535639653494    0.013525727468180  0.0000
  O3     O3        0.466723679323857    0.365500903203501    0.290217069154350  0.0000
  O2     O2        0.569164897440039    0.372000048262681    0.685566397765797  0.0000
  O2     O2        0.594562481239755    0.619308407472241    0.696533867137194  0.0000
  O2     O2        0.483755637992539    0.623894354517577    0.299388139035986  0.0000
  O3     O3        0.969106778363662    0.888026987980598    0.279565763959244  0.0000
  O2     O2        0.096280522021956    0.874592525076261    0.713030636248720  0.0000
  O2     O2        0.087019404953957    0.107890633561647    0.731929383811635  0.0000
  O3     O3        0.962427989431740    0.102630435033311    0.262222426456614  0.0000
  O3     O3        0.321182608819419    0.384850352658437    0.517844557555836  0.0000
  O2     O2        0.710819421155196    0.371906529993960    0.482384867249610  0.0000
  O2     O2        0.729313576616617    0.606393605583367    0.483767437297393  0.0000
  O2     O2        0.347353982863333    0.615910814156713    0.509234570279757  0.0000
  O2     O2        0.860442826394527    0.864684599413852    0.512377782819783  0.0000
  O3     O3        0.223112423782395    0.864551476131634    0.491420814023640  0.0000
  O2     O2        0.178778807937872    0.125386252029830    0.486349514915436  0.0000
  O3     O3        0.852887235738662    0.117029446403616    0.524473255169396  0.0000
  O3     O3        0.288957992444991    0.508329956607647    0.274041771924740  0.0000
  O2     O2        0.766484249868531    0.487917504455192    0.707411370774116  0.0000
  O3     O3        0.764907841771481    0.984288126319533    0.303886457906564  0.0000
  O2     O2        0.270149153798110    0.996752962582516    0.682313178218710  0.0000
  O2     O2        0.416399332479475    0.502467824070254    0.735015298075395  0.0000
  O2     O2        0.636314107232374    0.491282813382859    0.262432472686748  0.0000
  O2     O2        0.902307364796298    0.987477964108866    0.727229047626538  0.0000
  O3     O3        0.178717760034609    0.005315847707313    0.277452667545023  0.0000
