data_c00677.vasp
_audit_creation_method             Generated by GULP
_audit_author_name                 Salvador R. G. Balestra
_symmetry_space_group_name_H-M     'P 1             '
_symmetry_Int_Tables_number        1

loop_
_symmetry_equiv_pos_site_id
_symmetry_equiv_pos_as_xyz
_cell_length_a                       10.2948
_cell_length_b                       15.1414
_cell_length_c                        8.9858
_cell_angle_alpha                   90.0735
_cell_angle_beta                   105.3740
_cell_angle_gamma                   89.5934

loop_
_atom_site_label
_atom_site_type_symbol
_atom_site_fract_x
_atom_site_fract_y
_atom_site_fract_z
_atom_site_charge
  Ge     Ge        0.351599999999962    0.244500000000016    0.893900000000031  0.0000
  Ge     Ge        0.281647694221272    0.401007585342119    0.314243104856652  0.0000
  Ge     Ge        0.093102443865264    0.894240152938170    0.306280271139552  0.0000
  Ge     Ge        0.092459371447111    0.104761949700568    0.311697094511567  0.0000
  Si     Si        0.653089186364309    0.245194415232805    0.100922803582003  0.0000
  Si     Si        0.643926300344254    0.752174278108901    0.098025672447593  0.0000
  Si     Si        0.348401861695121    0.757290976151268    0.885711391715941  0.0000
  Si     Si        0.844755022950093    0.739405126714989    0.885357709535282  0.0000
  Si     Si        0.141664361595329    0.744516617776203    0.087213945147980  0.0000
  Si     Si        0.137667865719729    0.257978065038449    0.092059452653982  0.0000
  Si     Si        0.845944192805630    0.254896010208773    0.884730605412106  0.0000
  Si     Si        0.678541866194701    0.396111365492152    0.658582365781369  0.0000
  Si     Si        0.685386256148619    0.600098353791404    0.657750016515411  0.0000
  Si     Si        0.290308339271531    0.605690469134092    0.316307669453594  0.0000
  Si     Si        0.784259282629441    0.897285468904339    0.322528124642192  0.0000
  Si     Si        0.180685247535175    0.893530993605155    0.660840666470965  0.0000
  Si     Si        0.179826236103089    0.102382933865440    0.666412038682092  0.0000
  Si     Si        0.783419312264720    0.097971574468571    0.325540993847107  0.0000
  Si     Si        0.379950670504913    0.402579186873097    0.678371328102691  0.0000
  Si     Si        0.586965906553317    0.395867910233916    0.303819074705111  0.0000
  Si     Si        0.589531743714744    0.601161364570105    0.304407042072971  0.0000
  Si     Si        0.387727881686943    0.603998268652874    0.673336266148064  0.0000
  Si     Si        0.883539796939640    0.895236207888490    0.681394335191957  0.0000
  Si     Si        0.881641647519398    0.098301309227157    0.684029811025225  0.0000
  O3     O3        0.520689988884241    0.225728682392399    0.968639790425030  0.0000
  O2     O2        0.501591674480603    0.772607595270551    0.979003121755636  0.0000
  O2     O2        0.998516026417351    0.719401928432950    0.973512296111491  0.0000
  O2     O2        0.004218825716335    0.272250221720874    0.952725644775600  0.0000
  O3     O3        0.297345803332029    0.150788814261114    0.787353253451996  0.0000
  O2     O2        0.674643230311887    0.166631011392951    0.226770316414403  0.0000
  O2     O2        0.673629267778613    0.830928360009469    0.222815486855581  0.0000
  O2     O2        0.301596074405057    0.844745547655410    0.783461767235790  0.0000
  O2     O2        0.800146138507225    0.659715625506004    0.764922380879591  0.0000
  O2     O2        0.177520772487767    0.674678770946968    0.228170538889830  0.0000
  O3     O3        0.151437070152957    0.335423642525072    0.217230780036939  0.0000
  O2     O2        0.790259092365265    0.333913509207100    0.766161010891889  0.0000
  O3     O3        0.323418906842540    0.340619693569543    0.787428082440463  0.0000
  O2     O2        0.645337599760064    0.338127094626695    0.186102848900980  0.0000
  O2     O2        0.644625327635327    0.659360242019533    0.185892056797992  0.0000
  O2     O2        0.331143583276733    0.671277212045400    0.777723749020444  0.0000
  O2     O2        0.827619010773381    0.832014344400061    0.792811568500018  0.0000
  O3     O3        0.138225141674205    0.839495114846239    0.160589103064355  0.0000
  O3     O3        0.137236339650057    0.164475654633718    0.172780414872204  0.0000
  O2     O2        0.821949213671540    0.161534792969529    0.793887899639641  0.0000
  O3     O3        0.271055507182630    0.262453544478653    0.033976543231593  0.0000
  O2     O2        0.777883425772353    0.251525279286783    0.025209011322512  0.0000
  O2     O2        0.757867672263856    0.745135950082888    0.007927957841710  0.0000
  O2     O2        0.257261648140020    0.739847088328674    0.999942469961436  0.0000
  O3     O3        0.434400344136427    0.368661571880953    0.285142091189054  0.0000
  O2     O2        0.533571270410547    0.374011199641205    0.684672640814356  0.0000
  O2     O2        0.542418091113589    0.627579396261751    0.685474769832683  0.0000
  O2     O2        0.436263354151703    0.629397659587531    0.292231334383293  0.0000
  O3     O3        0.920992775759410    0.886621567547243    0.273641873652528  0.0000
  O2     O2        0.042615865112793    0.877573892362550    0.709944764367478  0.0000
  O2     O2        0.040318878546053    0.116960846241477    0.714388159092987  0.0000
  O3     O3        0.920246330289657    0.107604046997443    0.277539632981639  0.0000
  O3     O3        0.288081397918037    0.392360483801898    0.506398811625384  0.0000
  O2     O2        0.674057127146763    0.379348845197746    0.480002339855394  0.0000
  O2     O2        0.680979920952997    0.616031227813693    0.478804832073200  0.0000
  O2     O2        0.298303772005498    0.611191826722961    0.497682274440103  0.0000
  O2     O2        0.807786021843538    0.875481846186111    0.503812637000297  0.0000
  O3     O3        0.167099251494021    0.856224019118629    0.491524777551983  0.0000
  O3     O3        0.164946818294764    0.141849810908239    0.497273061343735  0.0000
  O2     O2        0.806029358697816    0.118937321187008    0.506691680149382  0.0000
  O3     O3        0.248865923120611    0.508789065508290    0.254215589432448  0.0000
  O2     O2        0.717508864576271    0.497654850727980    0.701526230929994  0.0000
  O2     O2        0.729242999729797    0.997875493207126    0.291444600107867  0.0000
  O2     O2        0.209071572602267    0.997887117009333    0.658046261533469  0.0000
  O2     O2        0.378247979683705    0.504552311656030    0.733042668418310  0.0000
  O2     O2        0.595510800613378    0.498567960576723    0.259240798289944  0.0000
  O2     O2        0.858019383276140    0.996607806650520    0.723899612492289  0.0000
  O1     O1        0.143100884269356    0.999535902136063    0.290443579800583  0.0000
