data_c00668.vasp
_audit_creation_method             Generated by GULP
_audit_author_name                 Salvador R. G. Balestra
_symmetry_space_group_name_H-M     'P 1             '
_symmetry_Int_Tables_number        1

loop_
_symmetry_equiv_pos_site_id
_symmetry_equiv_pos_as_xyz
_cell_length_a                       10.2742
_cell_length_b                       15.2269
_cell_length_c                        8.9496
_cell_angle_alpha                   90.8136
_cell_angle_beta                   105.2011
_cell_angle_gamma                   89.5722

loop_
_atom_site_label
_atom_site_type_symbol
_atom_site_fract_x
_atom_site_fract_y
_atom_site_fract_z
_atom_site_charge
  Ge     Ge        0.351599999999962    0.244500000000016    0.893900000000031  0.0000
  Ge     Ge        0.286427335825487    0.387909643159342    0.325416719236894  0.0000
  Ge     Ge        0.590874300905440    0.593258679044915    0.296438325656682  0.0000
  Ge     Ge        0.088696934089878    0.092608861822219    0.298393283928455  0.0000
  Si     Si        0.653048255159947    0.235145223981652    0.098297262901737  0.0000
  Si     Si        0.629052409348163    0.750384481671271    0.093244793618537  0.0000
  Si     Si        0.332092064211908    0.753238931333381    0.886050016845169  0.0000
  Si     Si        0.830993722530725    0.742554821975093    0.883332601645547  0.0000
  Si     Si        0.127252527131832    0.733915490340323    0.093263646809117  0.0000
  Si     Si        0.138607388860430    0.248562590922726    0.095345587801352  0.0000
  Si     Si        0.848148598937522    0.252149807473286    0.883617086958595  0.0000
  Si     Si        0.682682214667837    0.395634136564627    0.665815857228405  0.0000
  Si     Si        0.688328735646764    0.597466938854760    0.656600239589259  0.0000
  Si     Si        0.287888827982507    0.594889921812574    0.311857847091543  0.0000
  Si     Si        0.790324126087950    0.888547366720677    0.323457512099705  0.0000
  Si     Si        0.184608925926581    0.895404263962361    0.664263932333065  0.0000
  Si     Si        0.183215992171386    0.098823667061528    0.658340118063724  0.0000
  Si     Si        0.783836444974354    0.090541647769825    0.318650261445417  0.0000
  Si     Si        0.384169366441887    0.401595877017326    0.687230680308696  0.0000
  Si     Si        0.589363384065199    0.385612158545909    0.308234544874647  0.0000
  Si     Si        0.386664405731433    0.602518204936656    0.667950960099188  0.0000
  Si     Si        0.885922357227281    0.894927459749305    0.680549158712131  0.0000
  Si     Si        0.090700988407975    0.886418981035067    0.307220005507186  0.0000
  Si     Si        0.880357169769018    0.096236605963659    0.673233428155809  0.0000
  O3     O3        0.519569738996236    0.220843971722797    0.964569354464213  0.0000
  O2     O2        0.473132260260242    0.769250683291717    0.010590235054267  0.0000
  O2     O2        0.972092566399495    0.721806308986380    0.003179696740598  0.0000
  O2     O2        0.006699349633220    0.268016730181021    0.956603071471250  0.0000
  O3     O3        0.291905571457645    0.159658677872407    0.767786611354038  0.0000
  O2     O2        0.669987034579275    0.151677753363756    0.211612618689754  0.0000
  O2     O2        0.675537538844912    0.823995658391923    0.227795462457315  0.0000
  O2     O2        0.300086051397374    0.837069383120689    0.774420877591755  0.0000
  O2     O2        0.798703050568573    0.660498035562241    0.764981848788784  0.0000
  O2     O2        0.167010932833621    0.652026958836621    0.207127700599284  0.0000
  O3     O3        0.155658703753246    0.320622829617751    0.231581259392533  0.0000
  O2     O2        0.794521414390868    0.333704312714522    0.772513181513416  0.0000
  O3     O3        0.332364591534061    0.345954424199201    0.807464270612572  0.0000
  O2     O2        0.651627104244009    0.323365614287300    0.198530697173672  0.0000
  O3     O3        0.649011204810424    0.655099401737787    0.168727841963952  0.0000
  O2     O2        0.335089259718717    0.666963378889336    0.782098430805439  0.0000
  O2     O2        0.833068583712720    0.833174131101844    0.794106855163143  0.0000
  O2     O2        0.148762454963016    0.822197780112425    0.197269154651884  0.0000
  O3     O3        0.134983837780929    0.151473425547894    0.159909674874948  0.0000
  O2     O2        0.825139648560990    0.161491991096134    0.784586388646626  0.0000
  O3     O3        0.272411474253491    0.256008240409567    0.037720809344431  0.0000
  O2     O2        0.777600879562217    0.244090540511696    0.021862093399225  0.0000
  O2     O2        0.714832284315580    0.756032115530767    0.969308056076248  0.0000
  O2     O2        0.216499362070862    0.738777633736562    0.972238274996753  0.0000
  O3     O3        0.439588471341691    0.353928809219365    0.298895099871038  0.0000
  O2     O2        0.537045338668770    0.372334147734752    0.689782170334777  0.0000
  O2     O2        0.539078888708132    0.625620292401686    0.667482570476990  0.0000
  O3     O3        0.428575194166999    0.626856188552276    0.286947047585908  0.0000
  O2     O2        0.933660109003335    0.865113603975057    0.291438130690461  0.0000
  O2     O2        0.041997401860614    0.872855149955373    0.697010452439446  0.0000
  O2     O2        0.034281563334649    0.119684663764731    0.679197211356371  0.0000
  O3     O3        0.924600881892666    0.117848357854914    0.290991248613992  0.0000
  O3     O3        0.289078204742625    0.383556232606324    0.517755039849088  0.0000
  O2     O2        0.679853452362531    0.381210925013514    0.486176380412754  0.0000
  O3     O3        0.694258990030991    0.606585847783881    0.481518057548934  0.0000
  O2     O2        0.291666808321255    0.607583699133250    0.493618431086475  0.0000
  O2     O2        0.799368865739758    0.877631406514168    0.504701625728964  0.0000
  O2     O2        0.176534362704430    0.874554534212235    0.485025279614537  0.0000
  O3     O3        0.185688171192709    0.115520738116295    0.483059287951629  0.0000
  O2     O2        0.787740504286112    0.106323051630297    0.498784636151525  0.0000
  O3     O3        0.260604765294071    0.494429135744469    0.262123963937912  0.0000
  O2     O2        0.719402454602636    0.496980596860419    0.712329001174251  0.0000
  O2     O2        0.751127840767720    0.988588937154433    0.273400183285336  0.0000
  O2     O2        0.219725978713867    0.997214443357182    0.700270071058046  0.0000
  O2     O2        0.381603770265673    0.504572449163712    0.731360508825622  0.0000
  O3     O3        0.589327495777804    0.483660633814061    0.246581918621881  0.0000
  O2     O2        0.870477070385044    0.996467450391001    0.728759647250974  0.0000
  O3     O3        0.105993801175430    0.983804742827026    0.253410558590155  0.0000
