data_c00647.vasp
_audit_creation_method             Generated by GULP
_audit_author_name                 Salvador R. G. Balestra
_symmetry_space_group_name_H-M     'P 1             '
_symmetry_Int_Tables_number        1

loop_
_symmetry_equiv_pos_site_id
_symmetry_equiv_pos_as_xyz
_cell_length_a                       10.1685
_cell_length_b                       15.2709
_cell_length_c                        8.9351
_cell_angle_alpha                   89.6135
_cell_angle_beta                   105.2869
_cell_angle_gamma                   89.7099

loop_
_atom_site_label
_atom_site_type_symbol
_atom_site_fract_x
_atom_site_fract_y
_atom_site_fract_z
_atom_site_charge
  Ge     Ge        0.351599999999962    0.244500000000016    0.893900000000031  0.0000
  Ge     Ge        0.285445498009335    0.406426090330920    0.317130679710181  0.0000
  Ge     Ge        0.778425350151059    0.101816251816667    0.330720847113730  0.0000
  Ge     Ge        0.389875438869490    0.604112318381022    0.692976573380914  0.0000
  Si     Si        0.654334853040565    0.252717094958782    0.103871832983037  0.0000
  Si     Si        0.654167313734133    0.751557570579964    0.105103391242274  0.0000
  Si     Si        0.355565481004885    0.762039477428547    0.897113093476257  0.0000
  Si     Si        0.857350297367066    0.739194888221668    0.893623929238264  0.0000
  Si     Si        0.152292273450164    0.755194505283923    0.104480629983978  0.0000
  Si     Si        0.147328715714270    0.256146352740048    0.106961323402656  0.0000
  Si     Si        0.854620396805178    0.253976995820006    0.895387996012073  0.0000
  Si     Si        0.683574723037932    0.395548030093033    0.668479180577005  0.0000
  Si     Si        0.695925769734803    0.599896342000506    0.672890265148819  0.0000
  Si     Si        0.291854582134533    0.607854159209030    0.328244461274648  0.0000
  Si     Si        0.784159608463407    0.899628160078141    0.327244512130977  0.0000
  Si     Si        0.186323354478622    0.896239197036864    0.664628354185027  0.0000
  Si     Si        0.184210241919592    0.099657766155146    0.671226714382695  0.0000
  Si     Si        0.381194022033939    0.402581439871191    0.686019255925491  0.0000
  Si     Si        0.594480968681282    0.399896168629077    0.311756367310297  0.0000
  Si     Si        0.598032434210543    0.602958107207864    0.319487126788641  0.0000
  Si     Si        0.886144218242745    0.895703731596555    0.687372827041781  0.0000
  Si     Si        0.089468895361220    0.903516117068029    0.310770210744892  0.0000
  Si     Si        0.090261751534763    0.105373082517844    0.316570783336988  0.0000
  Si     Si        0.882143796432865    0.096876671794411    0.694975406427705  0.0000
  O3     O3        0.525704518788941    0.240120837443191    0.960810624492264  0.0000
  O2     O2        0.515936839098433    0.772966770473904    0.975112826925105  0.0000
  O2     O2        0.016781804429154    0.729028116664763    0.975723087588905  0.0000
  O2     O2        0.015800478476268    0.268911213553138    0.961717459064631  0.0000
  O3     O3        0.301487863442902    0.152544976025281    0.784439736614463  0.0000
  O3     O3        0.660466875011904    0.174147687017737    0.225258248287148  0.0000
  O2     O2        0.681340847281339    0.828612039091877    0.230889200036031  0.0000
  O2     O2        0.308681635094785    0.838495343354323    0.768450347017976  0.0000
  O2     O2        0.817251301608104    0.655806878306238    0.781798548478104  0.0000
  O2     O2        0.185928416428803    0.678994422753022    0.232741399926244  0.0000
  O3     O3        0.158696666597943    0.337944450805537    0.220347096581768  0.0000
  O2     O2        0.797351467908298    0.332293498912964    0.774075250703328  0.0000
  O3     O3        0.311435384059842    0.336948730176632    0.779580305789438  0.0000
  O2     O2        0.654791426025581    0.344471230806865    0.192921018731397  0.0000
  O2     O2        0.646468567071532    0.660477836096923    0.193866279885458  0.0000
  O3     O3        0.326782675674660    0.669807912146636    0.812683707271642  0.0000
  O2     O2        0.828107524640774    0.829346289508905    0.793889460818583  0.0000
  O2     O2        0.135699440339110    0.846784382710254    0.184519421923410  0.0000
  O2     O2        0.144248241289401    0.165677541330730    0.199153449879096  0.0000
  O2     O2        0.830143174322770    0.159562318353042    0.811993552874410  0.0000
  O3     O3        0.281452039757580    0.252367455288962    0.046900863823039  0.0000
  O2     O2        0.787486162997437    0.252698885462519    0.038295324330769  0.0000
  O2     O2        0.775681699356062    0.742297236629163    0.023750367329218  0.0000
  O2     O2        0.276210749383890    0.768415990048412    0.028507310386540  0.0000
  O3     O3        0.439543736069295    0.372580243628494    0.289502153610384  0.0000
  O2     O2        0.535795579803179    0.371632510222828    0.690341047999265  0.0000
  O3     O3        0.555409171008225    0.633038083788116    0.700989976811177  0.0000
  O2     O2        0.445627380627778    0.629722653726836    0.320622590812339  0.0000
  O2     O2        0.931386082107626    0.887099568826418    0.295728075859427  0.0000
  O2     O2        0.043801930825675    0.871633599342773    0.701424227679582  0.0000
  O2     O2        0.037776877444524    0.121440689467685    0.700988222402555  0.0000
  O3     O3        0.933457626677505    0.125346095067475    0.298263527108538  0.0000
  O3     O3        0.291315375149029    0.405552424166320    0.510338688508326  0.0000
  O2     O2        0.681766418855456    0.381469947433954    0.488950855491414  0.0000
  O2     O2        0.695489072997413    0.615441554790246    0.492902905669872  0.0000
  O3     O3        0.288177330143169    0.610879801958306    0.505526501219797  0.0000
  O2     O2        0.797370487814778    0.887005554193947    0.510257916022325  0.0000
  O2     O2        0.176838943191856    0.877751454349781    0.484338533154713  0.0000
  O2     O2        0.176592449146290    0.124260815757825    0.492941589375903  0.0000
  O3     O3        0.786674527031090    0.112269409863670    0.524641546529014  0.0000
  O3     O3        0.251294709877097    0.513409463687748    0.254936378088400  0.0000
  O2     O2        0.718168935625153    0.496598485138683    0.714534007676726  0.0000
  O3     O3        0.729451772384962    0.996054694700251    0.276118262320308  0.0000
  O2     O2        0.218978296262130    0.997339854699962    0.701911444683471  0.0000
  O3     O3        0.387553069433926    0.498201438931559    0.759272730031826  0.0000
  O2     O2        0.602569780554034    0.502168388503902    0.269649403288383  0.0000
  O2     O2        0.874068739816511    0.995034631038303    0.744621397913884  0.0000
  O2     O2        0.112404056571230    0.004696501342737    0.274876923202708  0.0000
