data_c00717.vasp
_audit_creation_method             Generated by GULP
_audit_author_name                 Salvador R. G. Balestra
_symmetry_space_group_name_H-M     'P 1             '
_symmetry_Int_Tables_number        1

loop_
_symmetry_equiv_pos_site_id
_symmetry_equiv_pos_as_xyz
_cell_length_a                       10.3091
_cell_length_b                       15.2360
_cell_length_c                        8.9149
_cell_angle_alpha                   90.2387
_cell_angle_beta                   104.9822
_cell_angle_gamma                   89.6452

loop_
_atom_site_label
_atom_site_type_symbol
_atom_site_fract_x
_atom_site_fract_y
_atom_site_fract_z
_atom_site_charge
  Ge     Ge        0.351599999999962    0.244500000000016    0.893900000000031  0.0000
  Ge     Ge        0.687547667544114    0.391298287095573    0.672251545863173  0.0000
  Ge     Ge        0.193139141077602    0.895112745212820    0.670150122828459  0.0000
  Ge     Ge        0.786397577817966    0.099959980191018    0.336497282639320  0.0000
  Si     Si        0.646250234628960    0.243477117875671    0.101107772630396  0.0000
  Si     Si        0.643480430098043    0.750268804982166    0.112682971160863  0.0000
  Si     Si        0.349747345329019    0.754576114480067    0.899353419677528  0.0000
  Si     Si        0.843431127748557    0.740476900712816    0.895284467287331  0.0000
  Si     Si        0.137566218361741    0.743465507705205    0.100716878308270  0.0000
  Si     Si        0.153414050461525    0.253471156837237    0.117331064989650  0.0000
  Si     Si        0.860282459876050    0.251682908423559    0.907750827688179  0.0000
  Si     Si        0.289793451477848    0.401796432254188    0.334098812669728  0.0000
  Si     Si        0.691912136579997    0.598933057108292    0.671651184118184  0.0000
  Si     Si        0.295900979741835    0.603297352379904    0.330973519921983  0.0000
  Si     Si        0.792709980090324    0.894965306940115    0.336719041005779  0.0000
  Si     Si        0.185530726114349    0.099076659660326    0.671486576498494  0.0000
  Si     Si        0.384528181643072    0.400510634906102    0.690653381137587  0.0000
  Si     Si        0.588871765838564    0.395733115594994    0.309105095367998  0.0000
  Si     Si        0.594897556628056    0.596938989774927    0.313436704112251  0.0000
  Si     Si        0.395225428072107    0.603886618290354    0.687687339953324  0.0000
  Si     Si        0.892745905319662    0.893691341536885    0.693398442444185  0.0000
  Si     Si        0.090485850581648    0.898623353005070    0.307281728100067  0.0000
  Si     Si        0.087215325547356    0.098574694273447    0.311270711505705  0.0000
  Si     Si        0.891262616823036    0.097054377378218    0.700117232272111  0.0000
  O3     O3        0.520079363191821    0.221491464758443    0.962142825525960  0.0000
  O2     O2        0.492860080922946    0.770976430705417    0.017395727735070  0.0000
  O2     O2        0.990620074349457    0.717672735509699    0.000154695710415  0.0000
  O2     O2        0.015707037584249    0.270622270030305    0.988385508629509  0.0000
  O3     O3        0.297659685659040    0.165656980360583    0.754635993281441  0.0000
  O3     O3        0.665468272367561    0.169293589069345    0.231562482901522  0.0000
  O2     O2        0.686092587764248    0.826776408325859    0.239484186146574  0.0000
  O3     O3        0.322333809110575    0.831298484546044    0.774415909316828  0.0000
  O2     O2        0.805585705136360    0.663400942060576    0.768056028748941  0.0000
  O2     O2        0.185464594394312    0.667725337627471    0.228524814006745  0.0000
  O2     O2        0.178357389911920    0.337752972340191    0.231949413900307  0.0000
  O3     O3        0.812278056046322    0.325503699819892    0.779171092780811  0.0000
  O3     O3        0.322231087983082    0.346369168311085    0.806082782133241  0.0000
  O2     O2        0.623612217809216    0.337259770591427    0.175688936234108  0.0000
  O2     O2        0.652260665838965    0.657236592131518    0.199537779627927  0.0000
  O2     O2        0.341906274218501    0.662043947406951    0.808741782778645  0.0000
  O2     O2        0.836035500982550    0.834012777323744    0.809940562537003  0.0000
  O2     O2        0.134965488606908    0.836980547653879    0.183569611091680  0.0000
  O2     O2        0.150496783876596    0.163718745371949    0.209911838489796  0.0000
  O2     O2        0.843096295553865    0.155668433732652    0.826222457736510  0.0000
  O3     O3        0.276391919624035    0.241461982880471    0.042638041249290  0.0000
  O2     O2        0.777611637547546    0.252149098365924    0.036876532415033  0.0000
  O2     O2        0.740239302877277    0.745325299149974    0.000359041819446  0.0000
  O2     O2        0.235456083979755    0.753485986401675    0.990391036663467  0.0000
  O2     O2        0.434718185532456    0.379087236281903    0.308333566434805  0.0000
  O3     O3        0.535512077630787    0.365856571374323    0.706703952226974  0.0000
  O2     O2        0.549512449750136    0.627267124653406    0.701438048554414  0.0000
  O2     O2        0.439598770991236    0.621480656368514    0.297877028101197  0.0000
  O2     O2        0.940367324460443    0.874730160730743    0.315277088324418  0.0000
  O3     O3        0.041641050074059    0.862088021097804    0.698889485239972  0.0000
  O2     O2        0.041393858691786    0.126350944711564    0.699157135511288  0.0000
  O3     O3        0.936722925310952    0.128118894129255    0.300332665503137  0.0000
  O2     O2        0.295807477494177    0.387004278557214    0.514110393924380  0.0000
  O3     O3        0.681477646274077    0.374532405227815    0.478154847739594  0.0000
  O2     O2        0.682814265706780    0.609874652794496    0.489275654107694  0.0000
  O2     O2        0.305926070088069    0.621164103037578    0.512426014659822  0.0000
  O2     O2        0.797960747533293    0.885595331959797    0.518662643499144  0.0000
  O3     O3        0.189434234144677    0.886458142943455    0.475779619300570  0.0000
  O2     O2        0.174978825302894    0.100153164345103    0.488328222163014  0.0000
  O3     O3        0.793630214329224    0.111900250673046    0.531145420729285  0.0000
  O2     O2        0.251340379295654    0.502908225710180    0.287881899039417  0.0000
  O3     O3        0.726637622492605    0.499511127155614    0.720810069163502  0.0000
  O3     O3        0.747576642674610    0.992532748123363    0.282122707072439  0.0000
  O3     O3        0.223600483910170    0.001678753856623    0.733338126208673  0.0000
  O2     O2        0.386179013933225    0.503025351141228    0.733979813140621  0.0000
  O2     O2        0.607585064274354    0.496436781415037    0.263947808822396  0.0000
  O2     O2        0.891779721168304    0.994929417584342    0.747977392482941  0.0000
  O2     O2        0.091709254498859    0.998999824111297    0.248478863808070  0.0000
