data_c00794.vasp
_audit_creation_method             Generated by GULP
_audit_author_name                 Salvador R. G. Balestra
_symmetry_space_group_name_H-M     'P 1             '
_symmetry_Int_Tables_number        1

loop_
_symmetry_equiv_pos_site_id
_symmetry_equiv_pos_as_xyz
_cell_length_a                       10.2408
_cell_length_b                       15.1946
_cell_length_c                        8.9225
_cell_angle_alpha                   90.4971
_cell_angle_beta                   104.8779
_cell_angle_gamma                   90.0958

loop_
_atom_site_label
_atom_site_type_symbol
_atom_site_fract_x
_atom_site_fract_y
_atom_site_fract_z
_atom_site_charge
  Ge     Ge        0.351599999999962    0.244500000000016    0.893900000000031  0.0000
  Ge     Ge        0.716551017610605    0.590361474671327    0.662521563839547  0.0000
  Ge     Ge        0.217657436856076    0.888381686891780    0.670082717030541  0.0000
  Ge     Ge        0.211083210535547    0.096769980061572    0.658176930255966  0.0000
  Si     Si        0.647197464824487    0.225487236314213    0.109454171299835  0.0000
  Si     Si        0.657729991874218    0.738731906954034    0.099844162885415  0.0000
  Si     Si        0.363503710788950    0.744085335406550    0.890035385723992  0.0000
  Si     Si        0.862280317078620    0.735739043982116    0.889772774989520  0.0000
  Si     Si        0.157784857598536    0.732770244884835    0.096453346270106  0.0000
  Si     Si        0.135408427030034    0.246901384422779    0.095618329871509  0.0000
  Si     Si        0.841989166951524    0.239097159746961    0.890641745890247  0.0000
  Si     Si        0.310197540779466    0.385311704600893    0.324995456543619  0.0000
  Si     Si        0.704253659606724    0.385086024452574    0.671480756720031  0.0000
  Si     Si        0.317107778251636    0.589481349143498    0.318970526107865  0.0000
  Si     Si        0.818515631057542    0.880878361736190    0.330234845299276  0.0000
  Si     Si        0.810479952858153    0.083306129301792    0.327274725880210  0.0000
  Si     Si        0.406315886642504    0.392467603281625    0.680672943133178  0.0000
  Si     Si        0.611591414303382    0.383010605098732    0.309687716911210  0.0000
  Si     Si        0.619852277093545    0.582497188568136    0.299662797010992  0.0000
  Si     Si        0.411576640990292    0.598825460224945    0.670195366892832  0.0000
  Si     Si        0.915017874172807    0.885380355248228    0.684518667614854  0.0000
  Si     Si        0.118034415269021    0.887725788561223    0.304554913930591  0.0000
  Si     Si        0.108421373357889    0.086662142959353    0.295308154178169  0.0000
  Si     Si        0.909313823479637    0.091726721320490    0.680597386638741  0.0000
  O3     O3        0.488496231490592    0.217431411746043    0.040847921184676  0.0000
  O2     O2        0.501889180856201    0.757573301661130    0.020614673954391  0.0000
  O2     O2        0.000928281354626    0.717871740257238    0.016693275446350  0.0000
  O2     O2        0.976910836466475    0.264040510178897    0.021235693650109  0.0000
  O1     O1        0.333356978125209    0.168471721553949    0.748840313318187  0.0000
  O2     O2        0.696227799895740    0.142056698250322    0.218158789683670  0.0000
  O2     O2        0.708963169817835    0.815378097354195    0.226502373433197  0.0000
  O3     O3        0.346146907216395    0.822501742326104    0.769676359060625  0.0000
  O3     O3        0.842543057563045    0.658406832755195    0.764014670248152  0.0000
  O2     O2        0.208253374672657    0.648986159918592    0.204043541886070  0.0000
  O2     O2        0.193666813156717    0.324373247090846    0.220311899234823  0.0000
  O2     O2        0.813688384314882    0.316297773488902    0.763809030838648  0.0000
  O3     O3        0.352515631401866    0.347155388835525    0.811618996468304  0.0000
  O2     O2        0.676549291173839    0.315395661224308    0.211259566085356  0.0000
  O2     O2        0.671637272281278    0.643768335268194    0.181177517410592  0.0000
  O2     O2        0.355102475266433    0.652428300909268    0.795322017862488  0.0000
  O2     O2        0.857942385999402    0.830470192004194    0.807486506567132  0.0000
  O2     O2        0.176826316701722    0.822229780255269    0.196886424170656  0.0000
  O2     O2        0.154282403757322    0.152308480579330    0.178941895888211  0.0000
  O2     O2        0.850991783850019    0.146516191590342    0.804051432690700  0.0000
  O3     O3        0.208649391258361    0.243690116921834    0.960367001494136  0.0000
  O2     O2        0.719155639095734    0.230489625234589    0.970316224819024  0.0000
  O2     O2        0.739858378529353    0.735118893474259    0.970786752031529  0.0000
  O2     O2        0.239079927441143    0.744349715126704    0.967791259449548  0.0000
  O2     O2        0.452879872734170    0.361038529520123    0.288967215327236  0.0000
  O2     O2        0.559442358171132    0.359694552238567    0.699425396513160  0.0000
  O3     O3        0.563682581836570    0.627924247946111    0.684064903376825  0.0000
  O2     O2        0.465922555493242    0.606996112151065    0.297173040483618  0.0000
  O2     O2        0.965915478113277    0.859698586415941    0.306643137885287  0.0000
  O3     O3        0.064199154763246    0.852456031284653    0.693476163059533  0.0000
  O3     O3        0.055532891820955    0.128114636554554    0.683897668099775  0.0000
  O2     O2        0.956055552440152    0.108962217628022    0.303258358664352  0.0000
  O2     O2        0.318331653368342    0.368825208286615    0.505899635662064  0.0000
  O2     O2        0.694188961647494    0.378163477950473    0.488363639760504  0.0000
  O3     O3        0.715590121683668    0.595331544283511    0.469446545870542  0.0000
  O2     O2        0.318806705842755    0.615109129828429    0.495792174244972  0.0000
  O2     O2        0.820846209995029    0.868333086650383    0.510448005019255  0.0000
  O3     O3        0.213535583707871    0.885391123799726    0.475285947249712  0.0000
  O3     O3        0.206925591040138    0.096353076251269    0.463826544053854  0.0000
  O2     O2        0.811580472777591    0.100449340654081    0.506593758786582  0.0000
  O2     O2        0.275710564974972    0.487351666580943    0.284565190131648  0.0000
  O3     O3        0.746226196724677    0.483533874872350    0.726953233750513  0.0000
  O2     O2        0.777120715403602    0.981153591147952    0.282016634727696  0.0000
  O1     O1        0.248891269276996    0.994057736385000    0.732689082364785  0.0000
  O2     O2        0.407156948981105    0.496459683476777    0.708587116195588  0.0000
  O2     O2        0.625268742660952    0.480802150035795    0.246106284243416  0.0000
  O2     O2        0.918198472023413    0.988898408527435    0.727539716835105  0.0000
  O2     O2        0.115581989952248    0.986243638928471    0.235375252273812  0.0000
