data_c00764.vasp
_audit_creation_method             Generated by GULP
_audit_author_name                 Salvador R. G. Balestra
_symmetry_space_group_name_H-M     'P 1             '
_symmetry_Int_Tables_number        1

loop_
_symmetry_equiv_pos_site_id
_symmetry_equiv_pos_as_xyz
_cell_length_a                       10.2429
_cell_length_b                       15.1922
_cell_length_c                        8.9755
_cell_angle_alpha                   89.3696
_cell_angle_beta                   105.2424
_cell_angle_gamma                   90.0047

loop_
_atom_site_label
_atom_site_type_symbol
_atom_site_fract_x
_atom_site_fract_y
_atom_site_fract_z
_atom_site_charge
  Ge     Ge        0.351599999999962    0.244500000000016    0.893900000000031  0.0000
  Ge     Ge        0.709920027884421    0.397715267982668    0.665926169312141  0.0000
  Ge     Ge        0.409252315562238    0.606026688369591    0.687188143842304  0.0000
  Ge     Ge        0.918506195343708    0.105471823134157    0.694936464628252  0.0000
  Si     Si        0.652817092022932    0.254579501311585    0.104273629715504  0.0000
  Si     Si        0.669278188349882    0.764199891257353    0.102112682488756  0.0000
  Si     Si        0.371783280257689    0.760823584782208    0.893735229345301  0.0000
  Si     Si        0.871461402097830    0.745491960339949    0.891031063154273  0.0000
  Si     Si        0.167650842559579    0.754173263001716    0.099830973122063  0.0000
  Si     Si        0.149287038281142    0.262543860992829    0.109187699627655  0.0000
  Si     Si        0.857525148045525    0.257758110978420    0.902231828417178  0.0000
  Si     Si        0.316377628126372    0.408138075092856    0.321344019665904  0.0000
  Si     Si        0.711259279638036    0.606277496676873    0.672325692673262  0.0000
  Si     Si        0.312893018940009    0.609545455456764    0.327927775648146  0.0000
  Si     Si        0.810851689896849    0.909465249481193    0.322978479951670  0.0000
  Si     Si        0.206573438035550    0.895032511249953    0.659784767703294  0.0000
  Si     Si        0.221308224826817    0.098456447332588    0.672856858261002  0.0000
  Si     Si        0.817595807283966    0.111634451686190    0.335696404012321  0.0000
  Si     Si        0.407018443261270    0.397349711890799    0.677848975184342  0.0000
  Si     Si        0.618362337095889    0.410000383846826    0.304966423161950  0.0000
  Si     Si        0.617142324671311    0.611146438546355    0.316944173189280  0.0000
  Si     Si        0.908994047021034    0.897416236277158    0.678686236385659  0.0000
  Si     Si        0.111834317554702    0.905960426529069    0.305150123260587  0.0000
  Si     Si        0.121970041526253    0.106036267829758    0.319756270805848  0.0000
  O3     O3        0.496877909773257    0.232849412052281    0.038563338113878  0.0000
  O2     O2        0.527576489907328    0.779807649118757    0.977753765870933  0.0000
  O2     O2        0.027679320237399    0.732236153502492    0.978651563188423  0.0000
  O2     O2        0.989234383611272    0.278239193923943    0.040104416861738  0.0000
  O3     O3        0.341824115064900    0.153403286654552    0.777280974428598  0.0000
  O2     O2        0.714894914316683    0.178192356860761    0.226350465942911  0.0000
  O2     O2        0.698643029461744    0.848425629853845    0.213698788135291  0.0000
  O2     O2        0.325155309810349    0.832247077948421    0.755408668072288  0.0000
  O2     O2        0.831977716193008    0.663129462460819    0.777906553288106  0.0000
  O2     O2        0.202802188028724    0.672895387522758    0.219055719188719  0.0000
  O2     O2        0.206093657671168    0.345970001453046    0.214211226376998  0.0000
  O3     O3        0.838477687788939    0.330670063216720    0.767846143734660  0.0000
  O3     O3        0.339344176096888    0.338987902179412    0.784192351726239  0.0000
  O2     O2        0.667921141435110    0.350087384399588    0.184404300152547  0.0000
  O2     O2        0.668146881839309    0.676808716425306    0.204401923873996  0.0000
  O3     O3        0.352192215063456    0.665040360491490    0.819655390815593  0.0000
  O2     O2        0.848094377778344    0.834319948403706    0.787709115296225  0.0000
  O2     O2        0.160414510262990    0.844607870285210    0.187732334495512  0.0000
  O2     O2        0.176333038483157    0.173366006842331    0.212322366789281  0.0000
  O3     O3        0.865699579830721    0.162238059981166    0.832208849906256  0.0000
  O3     O3        0.214939069661053    0.250496328201807    0.970150269657774  0.0000
  O2     O2        0.725156867126988    0.261300680400989    0.966819183657681  0.0000
  O2     O2        0.784977502008295    0.750925092199701    0.015029760747185  0.0000
  O2     O2        0.284858042868388    0.769329919778715    0.015957761826832  0.0000
  O2     O2        0.463593334497434    0.385350806513412    0.299657913467161  0.0000
  O3     O3        0.556580212228040    0.361565003190705    0.688214502598996  0.0000
  O3     O3        0.570541515170890    0.641405848865171    0.694219635453718  0.0000
  O2     O2        0.463322666564821    0.633713142157643    0.315460946380467  0.0000
  O2     O2        0.954930357605900    0.888091286716122    0.291830256222985  0.0000
  O2     O2        0.063100517310939    0.867985559412415    0.688705074957775  0.0000
  O3     O3        0.082740983635809    0.133438227475591    0.703893623550514  0.0000
  O2     O2        0.968229387070756    0.127884298921112    0.318299869255129  0.0000
  O2     O2        0.317791721678016    0.394408023192764    0.499569275548681  0.0000
  O3     O3        0.711741503427293    0.392447953977738    0.474551281779274  0.0000
  O2     O2        0.710775580250376    0.616861951067202    0.491707269606811  0.0000
  O3     O3        0.306477255299874    0.620405937585163    0.502188135733551  0.0000
  O2     O2        0.818491882678264    0.889934705406851    0.502027636359175  0.0000
  O2     O2        0.200173706469673    0.885856973744197    0.479241260545948  0.0000
  O2     O2        0.216021881647295    0.113793983549252    0.493021852578083  0.0000
  O3     O3        0.817007437841791    0.127039347590514    0.510938017479915  0.0000
  O2     O2        0.278230525650703    0.509235196571102    0.272932071812026  0.0000
  O3     O3        0.734070223072429    0.505354380825235    0.724018370956134  0.0000
  O2     O2        0.772144178450814    0.011680511763324    0.286095150256232  0.0000
  O2     O2        0.239206062881537    0.994957754073612    0.713703380508815  0.0000
  O3     O3        0.414111164738840    0.496647930574746    0.737257791016175  0.0000
  O2     O2        0.626344448399328    0.512229481712566    0.255863140361059  0.0000
  O3     O3        0.906103396199469    0.995482031719406    0.737044722476774  0.0000
  O2     O2        0.132058311856575    0.007171148426822    0.258906302031633  0.0000
