data_c00781.vasp
_audit_creation_method             Generated by GULP
_audit_author_name                 Salvador R. G. Balestra
_symmetry_space_group_name_H-M     'P 1             '
_symmetry_Int_Tables_number        1

loop_
_symmetry_equiv_pos_site_id
_symmetry_equiv_pos_as_xyz
_cell_length_a                       10.2212
_cell_length_b                       15.2135
_cell_length_c                        8.9286
_cell_angle_alpha                   90.8607
_cell_angle_beta                   104.9839
_cell_angle_gamma                   89.9830

loop_
_atom_site_label
_atom_site_type_symbol
_atom_site_fract_x
_atom_site_fract_y
_atom_site_fract_z
_atom_site_charge
  Ge     Ge        0.351599999999962    0.244500000000016    0.893900000000031  0.0000
  Ge     Ge        0.714467101275658    0.599189068241860    0.659959104119076  0.0000
  Ge     Ge        0.307240987698512    0.588391065918274    0.319405831197432  0.0000
  Ge     Ge        0.117617641321001    0.086885888389774    0.298646066299965  0.0000
  Si     Si        0.649338142164685    0.231628863411841    0.109479250615879  0.0000
  Si     Si        0.648431177374936    0.747335767120037    0.100625068896215  0.0000
  Si     Si        0.353413386472761    0.751328394017271    0.896129186211337  0.0000
  Si     Si        0.851610055528248    0.746937155190307    0.890130231679461  0.0000
  Si     Si        0.146849381183254    0.731643647454252    0.101644348857094  0.0000
  Si     Si        0.142954469878809    0.247536050338572    0.100510216681401  0.0000
  Si     Si        0.848960762895492    0.248373640489235    0.896932260791755  0.0000
  Si     Si        0.315680524000873    0.382648792864516    0.334101347852677  0.0000
  Si     Si        0.713913958205315    0.394327375608535    0.675803582983703  0.0000
  Si     Si        0.816352112780751    0.886762844975641    0.332431390825766  0.0000
  Si     Si        0.209533612029695    0.894474177878738    0.676918356279107  0.0000
  Si     Si        0.214667701193135    0.095444770116622    0.663244417027058  0.0000
  Si     Si        0.812967752458025    0.090621970006292    0.325751239987028  0.0000
  Si     Si        0.414925697241644    0.398214433593525    0.690578367365352  0.0000
  Si     Si        0.616452150149860    0.388072516486663    0.315649047081028  0.0000
  Si     Si        0.615721374653757    0.590274458520025    0.299963613066469  0.0000
  Si     Si        0.407280025098044    0.602945246987245    0.676593938592519  0.0000
  Si     Si        0.909025662203182    0.896124449560456    0.688515824275834  0.0000
  Si     Si        0.118890460184910    0.883622291243208    0.317455140042239  0.0000
  Si     Si        0.912586133932773    0.099087436230230    0.680857815336980  0.0000
  O3     O3        0.491117216037334    0.219380603887174    0.038650871585002  0.0000
  O2     O2        0.492573891782989    0.770321838412876    0.024089487260482  0.0000
  O2     O2        0.988616166044612    0.733564580872422    0.020962391041020  0.0000
  O2     O2        0.982918470809089    0.266637911137090    0.034252814676242  0.0000
  O3     O3        0.328051535318336    0.159760845178187    0.760089292192593  0.0000
  O2     O2        0.695595280492322    0.148815002266325    0.219815242531151  0.0000
  O2     O2        0.703344793229304    0.822005168366140    0.231140873333984  0.0000
  O2     O2        0.324600496255074    0.832431409250552    0.778093893189651  0.0000
  O3     O3        0.836189894274782    0.669406924505064    0.764880733434928  0.0000
  O3     O3        0.180067452535444    0.641866988804741    0.191272908771899  0.0000
  O2     O2        0.203014168632561    0.313821525185122    0.244717693499785  0.0000
  O2     O2        0.824204559750539    0.328534767239028    0.776675745632456  0.0000
  O3     O3        0.361923538220208    0.345405855736113    0.813271856244752  0.0000
  O2     O2        0.678653928020280    0.322533416690678    0.209917830377630  0.0000
  O2     O2        0.662893866087471    0.650847853651285    0.176288851759965  0.0000
  O2     O2        0.358723683977470    0.660736253859760    0.803582388983690  0.0000
  O2     O2        0.850109895401014    0.840667159858105    0.807298243427032  0.0000
  O2     O2        0.183948712723407    0.811605776236752    0.226363665092062  0.0000
  O3     O3        0.168979249845643    0.149863115015549    0.167057867370708  0.0000
  O2     O2        0.862197263708349    0.159337362738047    0.802472047382360  0.0000
  O3     O3        0.211545100886337    0.258977525278527    0.962729337395358  0.0000
  O2     O2        0.723429753415270    0.236346456856860    0.971606832001717  0.0000
  O2     O2        0.726496613620911    0.745671000831965    0.967118435173010  0.0000
  O2     O2        0.232525305193379    0.742100354059933    0.977010611574498  0.0000
  O2     O2        0.461607266460356    0.359884143710594    0.303654901579385  0.0000
  O2     O2        0.568717151964505    0.369100372961569    0.702263958200498  0.0000
  O3     O3        0.556473956123950    0.631891014985389    0.672229240783230  0.0000
  O3     O3        0.464469348411123    0.617667425997533    0.300155727071532  0.0000
  O2     O2        0.960682690729310    0.863333365145944    0.302104484934488  0.0000
  O2     O2        0.065092331835812    0.870181614536503    0.707051728723628  0.0000
  O2     O2        0.067370672441760    0.122342692129501    0.686153603328982  0.0000
  O3     O3        0.952692306793629    0.114999105364057    0.289575468426345  0.0000
  O2     O2        0.324085166515301    0.377595629678748    0.516627579567177  0.0000
  O2     O2        0.706207002089986    0.384086231182336    0.492800713374896  0.0000
  O3     O3        0.716725046925188    0.603794852116052    0.467760870287620  0.0000
  O3     O3        0.304784627877448    0.611620891789727    0.508753143948098  0.0000
  O2     O2        0.822466972124715    0.874366537305074    0.513331940323888  0.0000
  O2     O2        0.202852429501718    0.880176227546826    0.496527119638333  0.0000
  O3     O3        0.214716555368879    0.102593637387936    0.485378269657391  0.0000
  O2     O2        0.820735010400179    0.111622486798092    0.506293100015970  0.0000
  O3     O3        0.273820065814749    0.479086828038860    0.274879707037243  0.0000
  O3     O3        0.752454046040933    0.493788189174303    0.726836919916863  0.0000
  O2     O2        0.779250441380535    0.987583245887779    0.287330184377669  0.0000
  O2     O2        0.246921753231631    0.995715488780843    0.722348636725483  0.0000
  O2     O2        0.411572503613549    0.501524679907188    0.727936363234306  0.0000
  O2     O2        0.618218145408530    0.486894436482903    0.252096531451264  0.0000
  O2     O2        0.899231978916047    0.998636622989525    0.730160215586311  0.0000
  O3     O3        0.131258840982137    0.978126178448748    0.248192269008133  0.0000
