data_c00754.vasp
_audit_creation_method             Generated by GULP
_audit_author_name                 Salvador R. G. Balestra
_symmetry_space_group_name_H-M     'P 1             '
_symmetry_Int_Tables_number        1

loop_
_symmetry_equiv_pos_site_id
_symmetry_equiv_pos_as_xyz
_cell_length_a                       10.2209
_cell_length_b                       15.3404
_cell_length_c                        8.8864
_cell_angle_alpha                   89.9063
_cell_angle_beta                   105.4928
_cell_angle_gamma                   89.9126

loop_
_atom_site_label
_atom_site_type_symbol
_atom_site_fract_x
_atom_site_fract_y
_atom_site_fract_z
_atom_site_charge
  Ge     Ge        0.351599999999962    0.244500000000016    0.893900000000031  0.0000
  Ge     Ge        0.720614593316306    0.395726788831229    0.681366125299332  0.0000
  Ge     Ge        0.622464332192250    0.400344794918842    0.295092130553485  0.0000
  Ge     Ge        0.129722982039148    0.097766267618345    0.312441217311025  0.0000
  Si     Si        0.658394023355551    0.240832237938007    0.102276467551686  0.0000
  Si     Si        0.652115982246016    0.761378852619590    0.103097641440765  0.0000
  Si     Si        0.356645867868895    0.748373621736838    0.889653118831376  0.0000
  Si     Si        0.854415282743378    0.746487064063567    0.890808768006723  0.0000
  Si     Si        0.152275812997017    0.738871383075761    0.099387402265299  0.0000
  Si     Si        0.151962112578710    0.257598779433658    0.110157292402026  0.0000
  Si     Si        0.861047897885415    0.244716107107758    0.899833022482295  0.0000
  Si     Si        0.322413724078045    0.400018555791022    0.314475309699211  0.0000
  Si     Si        0.718277839813086    0.597898254170465    0.671451260881605  0.0000
  Si     Si        0.317479750920298    0.600375358195281    0.326234511183446  0.0000
  Si     Si        0.816485008012050    0.900701977239278    0.323734039308310  0.0000
  Si     Si        0.212666928201042    0.890461355796558    0.663730481199560  0.0000
  Si     Si        0.228073490047111    0.089439792428447    0.678201490801438  0.0000
  Si     Si        0.822948187975813    0.103049402387358    0.331720615203754  0.0000
  Si     Si        0.415916751821756    0.396379874277963    0.683230866701694  0.0000
  Si     Si        0.620598721130586    0.603142202298896    0.307296193798296  0.0000
  Si     Si        0.412877699089027    0.596519375295188    0.684104249862972  0.0000
  Si     Si        0.913624198212148    0.895379485230053    0.681909789602506  0.0000
  Si     Si        0.116009120246725    0.895193606626153    0.301568973237153  0.0000
  Si     Si        0.923831843943205    0.096625371275634    0.688479009049537  0.0000
  O3     O3        0.497146564905939    0.235192315326599    0.041254675336887  0.0000
  O2     O2        0.494865987732235    0.773577414625980    0.015272991874670  0.0000
  O2     O2        0.995383868499906    0.723507686251929    0.014031874008210  0.0000
  O2     O2        0.988503935475540    0.260882477949421    0.048145169815268  0.0000
  O3     O3        0.339054803198192    0.148379598843378    0.790329215960608  0.0000
  O2     O2        0.704926021493376    0.163856752220754    0.229391297723323  0.0000
  O2     O2        0.696220297385245    0.844465483379856    0.215122553756331  0.0000
  O2     O2        0.324782859788039    0.823213076987979    0.757817288989204  0.0000
  O2     O2        0.821985014554435    0.669244274493084    0.765251576884336  0.0000
  O2     O2        0.200600218143255    0.660158396689062    0.220566227563810  0.0000
  O2     O2        0.198047539797387    0.337974737532591    0.230185721899539  0.0000
  O3     O3        0.843888108971313    0.324827215436309    0.782164394436755  0.0000
  O3     O3        0.339730523760831    0.332732950144997    0.770520684429155  0.0000
  O3     O3        0.695038687839358    0.334031971103952    0.184093076906918  0.0000
  O2     O2        0.675532853676748    0.673984978480896    0.206931865093759  0.0000
  O2     O2        0.366430019919355    0.655932931904405    0.808290405156625  0.0000
  O2     O2        0.859007692681244    0.837377831162421    0.801665980982799  0.0000
  O2     O2        0.172014871925606    0.829403479606597    0.193682563167289  0.0000
  O3     O3        0.196199876758595    0.167284590568193    0.201071795955091  0.0000
  O2     O2        0.878211965377900    0.154853239303004    0.813837797498470  0.0000
  O3     O3        0.214034394281627    0.262815190179013    0.965216315331700  0.0000
  O2     O2        0.726796693084272    0.232326737346348    0.959837288521135  0.0000
  O2     O2        0.737097430950951    0.754869789751464    0.977172125825649  0.0000
  O2     O2        0.236810806675908    0.741895882064265    0.972679066793701  0.0000
  O3     O3        0.447867631032392    0.383402425861637    0.243203545151043  0.0000
  O3     O3        0.576148661193205    0.379677141260535    0.743835815790963  0.0000
  O2     O2        0.572756270577368    0.607938812823786    0.707428415191949  0.0000
  O2     O2        0.459858554995409    0.617042627856930    0.286035964059848  0.0000
  O2     O2        0.958313855043342    0.874795761031721    0.288916270841529  0.0000
  O2     O2        0.067884019021275    0.867976015508616    0.693623198000759  0.0000
  O2     O2        0.079468204843536    0.116841856972727    0.695477794940500  0.0000
  O3     O3        0.964776739276375    0.127877050338337    0.301010330199051  0.0000
  O2     O2        0.372876741938390    0.378439304882030    0.497964274739455  0.0000
  O1     O1        0.693215503708297    0.376822792754067    0.486731062881629  0.0000
  O2     O2        0.701951417536117    0.612394457061357    0.488161334338157  0.0000
  O2     O2        0.331719916214148    0.622374491947838    0.507544503575340  0.0000
  O2     O2        0.823243901954264    0.881725617466335    0.504555500233769  0.0000
  O2     O2        0.203587224081338    0.884121829478539    0.480783296420108  0.0000
  O3     O3        0.229801651582801    0.104278627367420    0.500989478675579  0.0000
  O2     O2        0.830942710905495    0.117405192011580    0.514595638074103  0.0000
  O2     O2        0.273189657726808    0.500261902210404    0.290798950104611  0.0000
  O3     O3        0.774977020117017    0.502257344739240    0.719332728096867  0.0000
  O2     O2        0.786862209271239    0.002446326100273    0.286221923538266  0.0000
  O2     O2        0.256629983333402    0.987800696840749    0.723159694324910  0.0000
  O2     O2        0.381684722618827    0.496470875733670    0.716938287586368  0.0000
  O3     O3        0.648008107256759    0.507856270022917    0.251648008708331  0.0000
  O2     O2        0.906517193354814    0.995891223287321    0.731231322928545  0.0000
  O3     O3        0.131898912656579    0.992267325732440    0.245456041427554  0.0000
