data_c00797.vasp
_audit_creation_method             Generated by GULP
_audit_author_name                 Salvador R. G. Balestra
_symmetry_space_group_name_H-M     'P 1             '
_symmetry_Int_Tables_number        1

loop_
_symmetry_equiv_pos_site_id
_symmetry_equiv_pos_as_xyz
_cell_length_a                       10.1956
_cell_length_b                       15.2438
_cell_length_c                        8.9296
_cell_angle_alpha                   90.1020
_cell_angle_beta                   105.1061
_cell_angle_gamma                   90.1800

loop_
_atom_site_label
_atom_site_type_symbol
_atom_site_fract_x
_atom_site_fract_y
_atom_site_fract_z
_atom_site_charge
  Ge     Ge        0.351599999999962    0.244500000000016    0.893900000000031  0.0000
  Ge     Ge        0.728613024785581    0.590626162703892    0.669866046377499  0.0000
  Ge     Ge        0.232930019379748    0.893399428844742    0.670372938513008  0.0000
  Ge     Ge        0.622029520629787    0.384548907873410    0.308007962957237  0.0000
  Si     Si        0.652008481059196    0.224546244781746    0.104926485295734  0.0000
  Si     Si        0.670044591583571    0.743483614527007    0.103966429538399  0.0000
  Si     Si        0.374056319045040    0.747304774506281    0.892844845222282  0.0000
  Si     Si        0.873127466944396    0.737153560636397    0.893240592761999  0.0000
  Si     Si        0.169433514607430    0.737954075479949    0.100423919096457  0.0000
  Si     Si        0.142458090615540    0.252223402161596    0.105068486289203  0.0000
  Si     Si        0.849941238866269    0.237723282203620    0.894276225581474  0.0000
  Si     Si        0.315011964844855    0.390645692465012    0.326564646769689  0.0000
  Si     Si        0.717545895768770    0.387117140793399    0.674836083789242  0.0000
  Si     Si        0.330025276471802    0.594655919330344    0.325057935951404  0.0000
  Si     Si        0.831835508501648    0.885346385713036    0.331897311184937  0.0000
  Si     Si        0.221841825107544    0.096828405264275    0.663483617026801  0.0000
  Si     Si        0.821061204541220    0.087577065875315    0.328240639275006  0.0000
  Si     Si        0.414613770354610    0.395113803228091    0.682130000066567  0.0000
  Si     Si        0.632779543766339    0.586725079429575    0.304714164390529  0.0000
  Si     Si        0.422266918106808    0.599802505303227    0.677575852356855  0.0000
  Si     Si        0.925758783372672    0.887394354282566    0.686072397349999  0.0000
  Si     Si        0.133695001448540    0.893052449325199    0.306648941877088  0.0000
  Si     Si        0.119883168517650    0.091978528994209    0.302981242506031  0.0000
  Si     Si        0.922117163490648    0.091811634828534    0.683770984895213  0.0000
  O3     O3        0.491129114878909    0.218019769795878    0.040213605256915  0.0000
  O2     O2        0.512074284891258    0.758884093797196    0.026066554946729  0.0000
  O2     O2        0.011536140490262    0.721144303358300    0.023637604421006  0.0000
  O2     O2        0.980989586312183    0.260685078206476    0.032822581104875  0.0000
  O3     O3        0.330694841467813    0.166848850643864    0.749227040241881  0.0000
  O2     O2        0.700414451291897    0.144120183973148    0.223120281059565  0.0000
  O2     O2        0.721459671942012    0.823077983685879    0.222517458864353  0.0000
  O3     O3        0.359509797469225    0.827583987753397    0.775622052713006  0.0000
  O3     O3        0.854795744697923    0.659173894596869    0.770307860809072  0.0000
  O2     O2        0.221208569260444    0.656679923792895    0.213974827717093  0.0000
  O2     O2        0.191433595216253    0.333528517541976    0.222653974666031  0.0000
  O2     O2        0.823312349121010    0.318207494726740    0.774783805794784  0.0000
  O3     O3        0.363422716881473    0.345597767237770    0.811513430779458  0.0000
  O3     O3        0.689477790582929    0.315079726484618    0.197542821923468  0.0000
  O2     O2        0.690305895324721    0.652306962658490    0.196625230376895  0.0000
  O2     O2        0.365444231885953    0.656350080874016    0.798299961663806  0.0000
  O2     O2        0.870072799840670    0.830505705002608    0.807401377010033  0.0000
  O2     O2        0.188277834598205    0.829642128533141    0.193344731858776  0.0000
  O2     O2        0.176039995230959    0.160519133807830    0.198676113961027  0.0000
  O2     O2        0.867160690824395    0.148653161185306    0.804632712824186  0.0000
  O3     O3        0.212525098737009    0.251918223291895    0.966443567716884  0.0000
  O2     O2        0.721327160349817    0.221851779356506    0.962882686471462  0.0000
  O2     O2        0.748824863405818    0.737261647322762    0.971821200250207  0.0000
  O2     O2        0.248217556663162    0.746508772001569    0.968796950313114  0.0000
  O3     O3        0.453422275034019    0.358421070983587    0.291852198963506  0.0000
  O2     O2        0.565924598807758    0.363029608248162    0.686547100181592  0.0000
  O3     O3        0.574991493061234    0.628593091949003    0.689729282141566  0.0000
  O2     O2        0.480041971034877    0.614334576338818    0.307484645740043  0.0000
  O2     O2        0.980126927242375    0.867074262347017    0.307626966870315  0.0000
  O3     O3        0.079357772798443    0.861404159836096    0.699233872001629  0.0000
  O2     O2        0.076695231168450    0.119426891545360    0.696344890585911  0.0000
  O2     O2        0.962557977661771    0.112972771203734    0.290707890612248  0.0000
  O2     O2        0.320487481761527    0.377797990820009    0.508032340330839  0.0000
  O3     O3        0.718934738565374    0.380650358887751    0.496703079263868  0.0000
  O3     O3        0.728812472591226    0.590370432411484    0.477218836979314  0.0000
  O2     O2        0.328679859400469    0.614467155720441    0.502522512078339  0.0000
  O2     O2        0.835404723636599    0.867544813033777    0.511026893415252  0.0000
  O3     O3        0.229871862368820    0.884102229881741    0.477096670913623  0.0000
  O2     O2        0.207794057183327    0.099733275246549    0.479821120309628  0.0000
  O2     O2        0.830915634330878    0.107544847327462    0.508628794022976  0.0000
  O2     O2        0.291198034592978    0.493286310196257    0.282586941131635  0.0000
  O3     O3        0.757382039750213    0.484471411663545    0.737554553279229  0.0000
  O2     O2        0.788136391743108    0.985514357275172    0.290166779097700  0.0000
  O3     O3        0.267340802325719    0.000822028817578    0.726792638823110  0.0000
  O2     O2        0.417854822666331    0.498050258406296    0.722051745580333  0.0000
  O3     O3        0.629834456379099    0.489434840814627    0.238088890774759  0.0000
  O2     O2        0.915339984688887    0.989743938584675    0.727169271699565  0.0000
  O2     O2        0.135429722381125    0.993047116506191    0.244673367825880  0.0000
