data_c00783.vasp
_audit_creation_method             Generated by GULP
_audit_author_name                 Salvador R. G. Balestra
_symmetry_space_group_name_H-M     'P 1             '
_symmetry_Int_Tables_number        1

loop_
_symmetry_equiv_pos_site_id
_symmetry_equiv_pos_as_xyz
_cell_length_a                       10.3066
_cell_length_b                       15.2338
_cell_length_c                        8.9125
_cell_angle_alpha                   90.2137
_cell_angle_beta                   104.8549
_cell_angle_gamma                   90.0341

loop_
_atom_site_label
_atom_site_type_symbol
_atom_site_fract_x
_atom_site_fract_y
_atom_site_fract_z
_atom_site_charge
  Ge     Ge        0.351599999999962    0.244500000000016    0.893900000000031  0.0000
  Ge     Ge        0.692988618046536    0.599177680755977    0.663260679329877  0.0000
  Ge     Ge        0.791317884407837    0.890381345214297    0.326590478310915  0.0000
  Ge     Ge        0.193689264281012    0.898644747723834    0.669643158633879  0.0000
  Si     Si        0.649299593935158    0.238195372399837    0.102459784847014  0.0000
  Si     Si        0.647938915954349    0.743407365482924    0.099287136786394  0.0000
  Si     Si        0.357616284014213    0.755010711597609    0.885744773360328  0.0000
  Si     Si        0.858286859805238    0.739966691586086    0.897191139413436  0.0000
  Si     Si        0.155095674455669    0.743463738628053    0.098069668628432  0.0000
  Si     Si        0.140241278761740    0.253002106661079    0.103311832545268  0.0000
  Si     Si        0.851894986064971    0.253340232289601    0.893681702796975  0.0000
  Si     Si        0.287321908760436    0.395364394608332    0.328538883256154  0.0000
  Si     Si        0.682450737378673    0.390960745190310    0.667564947310908  0.0000
  Si     Si        0.294254160612297    0.596730996221291    0.321791951401190  0.0000
  Si     Si        0.186675250415556    0.103978937099615    0.657030088758886  0.0000
  Si     Si        0.782893248160274    0.093222951248540    0.331053576717632  0.0000
  Si     Si        0.386831919108716    0.400256983646188    0.686846639492024  0.0000
  Si     Si        0.585498381138577    0.390123086199988    0.308952759477366  0.0000
  Si     Si        0.594936694278581    0.591570408376946    0.302224479674583  0.0000
  Si     Si        0.389559598423558    0.603820041630688    0.676280414377672  0.0000
  Si     Si        0.896547896469982    0.894760215742232    0.697505770246501  0.0000
  Si     Si        0.090168971646936    0.895080425391277    0.299214929440437  0.0000
  Si     Si        0.080997019520773    0.095172973068906    0.300756090720229  0.0000
  Si     Si        0.890107134240627    0.097622384974557    0.687889240276309  0.0000
  O3     O3        0.516256684477433    0.216137385336459    0.973265060833478  0.0000
  O2     O2        0.513044563130090    0.765853298347960    0.971552816362001  0.0000
  O2     O2        0.012856139794406    0.723251882725146    0.981848529841973  0.0000
  O2     O2        0.006668128442407    0.277973183056453    0.971880522543333  0.0000
  O3     O3        0.296421339688419    0.170986646734051    0.745309018702884  0.0000
  O2     O2        0.678537186487566    0.161359435999166    0.230103873064784  0.0000
  O3     O3        0.671840618275670    0.816903253850686    0.231573898469061  0.0000
  O3     O3        0.324214445056375    0.835299336402862    0.768730334161280  0.0000
  O3     O3        0.818804488757431    0.662644722653114    0.772708609090488  0.0000
  O2     O2        0.188070482507050    0.661413638785682    0.215159104381156  0.0000
  O2     O2        0.172256193126627    0.331409366478267    0.230765640976893  0.0000
  O2     O2        0.795499660465969    0.327538933571639    0.766982881893352  0.0000
  O3     O3        0.331334915239120    0.347551786945363    0.809746516102755  0.0000
  O2     O2        0.633412881129774    0.329075835663272    0.188249718437160  0.0000
  O2     O2        0.638034350092842    0.647750236764218    0.171773249985772  0.0000
  O2     O2        0.328103189210610    0.663786160001033    0.789469576022019  0.0000
  O2     O2        0.835903653278695    0.834192001525839    0.811070067776013  0.0000
  O2     O2        0.154758208709310    0.833780580925125    0.191113571378149  0.0000
  O2     O2        0.118354511662264    0.160735635066646    0.179705415333651  0.0000
  O2     O2        0.839177775394957    0.159243200303648    0.807180078247715  0.0000
  O3     O3        0.265668821940614    0.240128055608426    0.033278294966752  0.0000
  O2     O2        0.773365688553581    0.249373305901790    0.026350442922102  0.0000
  O2     O2        0.771291565263279    0.738896043631445    0.021674244971336  0.0000
  O2     O2        0.268586224579253    0.755279794676166    0.007748772401975  0.0000
  O2     O2        0.428908665734652    0.370967798283639    0.293412898855998  0.0000
  O2     O2        0.539476488493008    0.368321130203833    0.701559731631567  0.0000
  O3     O3        0.541278390273715    0.632947343063703    0.690821008689785  0.0000
  O2     O2        0.442044871566032    0.614351143469242    0.300660570567407  0.0000
  O3     O3        0.930861732434054    0.881391848347377    0.255328982811924  0.0000
  O3     O3        0.055684226754645    0.881373972638656    0.741132254090356  0.0000
  O2     O2        0.048492990640328    0.113312830365258    0.710484186139218  0.0000
  O2     O2        0.922239217939897    0.095452983831814    0.281444494223423  0.0000
  O2     O2        0.298337206750879    0.383601828758505    0.510964864605817  0.0000
  O2     O2        0.671576316005900    0.375041765170702    0.485054513510865  0.0000
  O3     O3        0.690176590076624    0.611946098912435    0.469884374039325  0.0000
  O2     O2        0.298198149593038    0.615388106686865    0.501008025665344  0.0000
  O3     O3        0.832598181071087    0.866461732131119    0.521483114715283  0.0000
  O3     O3        0.152591923339208    0.870448355658753    0.476462370952466  0.0000
  O2     O2        0.158062553744379    0.123738316728767    0.473940954133517  0.0000
  O2     O2        0.808851822378683    0.119536449417584    0.512237083913237  0.0000
  O2     O2        0.249738381404309    0.496029062242776    0.278977184914785  0.0000
  O3     O3        0.722218338487882    0.490364648194997    0.712608232001428  0.0000
  O3     O3        0.725931969091653    0.995523151254227    0.303080806042381  0.0000
  O3     O3        0.242602990533920    0.006526442278716    0.692272261070513  0.0000
  O2     O2        0.386932543232257    0.502993363836822    0.727614607765902  0.0000
  O2     O2        0.605849759949951    0.489494869646687    0.259772898573658  0.0000
  O2     O2        0.862743693656393    0.996655475026115    0.723558502835026  0.0000
  O2     O2        0.124589996444079    0.996489218183150    0.268462455074484  0.0000
