data_c00765.vasp
_audit_creation_method             Generated by GULP
_audit_author_name                 Salvador R. G. Balestra
_symmetry_space_group_name_H-M     'P 1             '
_symmetry_Int_Tables_number        1

loop_
_symmetry_equiv_pos_site_id
_symmetry_equiv_pos_as_xyz
_cell_length_a                       10.2255
_cell_length_b                       15.2126
_cell_length_c                        8.9822
_cell_angle_alpha                   90.2694
_cell_angle_beta                   105.3254
_cell_angle_gamma                   90.0163

loop_
_atom_site_label
_atom_site_type_symbol
_atom_site_fract_x
_atom_site_fract_y
_atom_site_fract_z
_atom_site_charge
  Ge     Ge        0.351599999999962    0.244500000000016    0.893900000000031  0.0000
  Ge     Ge        0.715905547787784    0.401669094221819    0.676673361736058  0.0000
  Ge     Ge        0.905330699575446    0.899642132320415    0.687529800788428  0.0000
  Ge     Ge        0.114609487486383    0.895951173360445    0.310273859339320  0.0000
  Si     Si        0.653291500501681    0.244530747073760    0.108384585948282  0.0000
  Si     Si        0.645075736073333    0.757898532368759    0.106779691677185  0.0000
  Si     Si        0.349770719954702    0.751027312717000    0.893432255788743  0.0000
  Si     Si        0.849239739413427    0.748587092726339    0.899673892457780  0.0000
  Si     Si        0.147454559877948    0.737672533945569    0.099780823659565  0.0000
  Si     Si        0.150809153867506    0.255551175329035    0.111993009168898  0.0000
  Si     Si        0.857658131024269    0.256385113560933    0.903717412088540  0.0000
  Si     Si        0.319106233796642    0.398645274815099    0.331064570547035  0.0000
  Si     Si        0.710679477861025    0.606953926915691    0.669459289972931  0.0000
  Si     Si        0.313326882146436    0.601189587617205    0.327974822216780  0.0000
  Si     Si        0.805881913560750    0.899697704638436    0.330274688270130  0.0000
  Si     Si        0.211021617628479    0.894613734944778    0.669038224371233  0.0000
  Si     Si        0.214374217430552    0.096853262803650    0.669878484567659  0.0000
  Si     Si        0.819315252670787    0.104200763548113    0.333694763526243  0.0000
  Si     Si        0.408284090053280    0.398733714829131    0.685640122228084  0.0000
  Si     Si        0.621511422796827    0.401452964178127    0.312748991865587  0.0000
  Si     Si        0.614711821783316    0.602683164463840    0.312805972758310  0.0000
  Si     Si        0.409399042198894    0.603700869799070    0.680489845343000  0.0000
  Si     Si        0.117774652057268    0.099250188173392    0.311895593925581  0.0000
  Si     Si        0.916955083683067    0.107109454978791    0.689552173264199  0.0000
  O3     O3        0.496626575048543    0.225742587058596    0.036053937919242  0.0000
  O2     O2        0.487038684016273    0.768888969436995    0.024330006741158  0.0000
  O2     O2        0.988364011366293    0.723288696090340    0.023081682130252  0.0000
  O2     O2        0.990048040087754    0.268450729388163    0.044543328665794  0.0000
  O3     O3        0.332839317388876    0.158605688266139    0.762920900080488  0.0000
  O2     O2        0.707022511197295    0.167436964810442    0.230848619440448  0.0000
  O2     O2        0.689155804899752    0.842958356143880    0.214811985165308  0.0000
  O2     O2        0.324735272593067    0.834190247560566    0.779879701185979  0.0000
  O2     O2        0.819663300121168    0.677604431548716    0.760507629344607  0.0000
  O2     O2        0.195674855074731    0.659582212327159    0.222063507843590  0.0000
  O2     O2        0.206704337899914    0.338733290897210    0.220351127687443  0.0000
  O3     O3        0.841259829180506    0.338501109953815    0.790530319999278  0.0000
  O3     O3        0.348129301604990    0.343931633440105    0.801446086625257  0.0000
  O2     O2        0.672222429705085    0.339275199770196    0.194569843927283  0.0000
  O2     O2        0.671434131855220    0.668865272471538    0.207082497830568  0.0000
  O2     O2        0.354549234240664    0.661820344460160    0.798876326198570  0.0000
  O3     O3        0.856977656160785    0.843766574904598    0.829323992372193  0.0000
  O3     O3        0.172700216100131    0.830198769014374    0.186858048984642  0.0000
  O2     O2        0.181147634774114    0.167562788349336    0.214916956634270  0.0000
  O2     O2        0.862165386522942    0.169063705402918    0.803638164015924  0.0000
  O3     O3        0.215866081240839    0.247043904733424    0.971596965215251  0.0000
  O2     O2        0.728254006702894    0.247766603160197    0.972757239596589  0.0000
  O2     O2        0.727966968437659    0.748775636977153    0.980516466717675  0.0000
  O2     O2        0.226130672169248    0.737207348909748    0.968366206336923  0.0000
  O2     O2        0.465789680581528    0.377619503566588    0.305385245959540  0.0000
  O3     O3        0.562667496260981    0.370499637207147    0.705222435930083  0.0000
  O2     O2        0.563902825088670    0.629852061057629    0.693793054381838  0.0000
  O2     O2        0.457578282583102    0.624915575745131    0.297669622812340  0.0000
  O3     O3        0.950707449572477    0.869914141280552    0.310482334266045  0.0000
  O3     O3        0.063753146833316    0.865403387771645    0.680814684123944  0.0000
  O2     O2        0.072830054479762    0.130868930088962    0.698486137708946  0.0000
  O2     O2        0.963489170781240    0.126565127598620    0.303259931312823  0.0000
  O2     O2        0.322934326389976    0.380753508748835    0.508612652445734  0.0000
  O3     O3        0.712810804410154    0.388606883442736    0.484585392997019  0.0000
  O2     O2        0.703495214787138    0.614027789881788    0.488461104411131  0.0000
  O2     O2        0.318713616907326    0.620527998167745    0.506358861302863  0.0000
  O3     O3        0.798923978195848    0.885402669779287    0.504456714985273  0.0000
  O3     O3        0.218872285940457    0.884865953156583    0.494549419801053  0.0000
  O2     O2        0.206914422814939    0.100541784386761    0.488850216148832  0.0000
  O2     O2        0.825861251519053    0.119627564178555    0.513468173938899  0.0000
  O2     O2        0.278920374388823    0.499374577973643    0.288278519143079  0.0000
  O3     O3        0.753146023729502    0.510050809470801    0.728067316755144  0.0000
  O2     O2        0.782114987210093    0.002930029025019    0.288502850013440  0.0000
  O2     O2        0.237754213181891    0.995952947514014    0.724822393655607  0.0000
  O2     O2        0.401804595412393    0.502028131631868    0.724392618873374  0.0000
  O2     O2        0.629551758819446    0.502547396153862    0.259355396226637  0.0000
  O3     O3        0.905673612275297    0.008265341092528    0.741517046241657  0.0000
  O3     O3        0.121386346559399    0.002280830641062    0.245734963330121  0.0000
