data_c00792.vasp
_audit_creation_method             Generated by GULP
_audit_author_name                 Salvador R. G. Balestra
_symmetry_space_group_name_H-M     'P 1             '
_symmetry_Int_Tables_number        1

loop_
_symmetry_equiv_pos_site_id
_symmetry_equiv_pos_as_xyz
_cell_length_a                       10.2780
_cell_length_b                       15.2369
_cell_length_c                        8.9420
_cell_angle_alpha                   90.2909
_cell_angle_beta                   105.0900
_cell_angle_gamma                   89.7747

loop_
_atom_site_label
_atom_site_type_symbol
_atom_site_fract_x
_atom_site_fract_y
_atom_site_fract_z
_atom_site_charge
  Ge     Ge        0.351599999999962    0.244500000000016    0.893900000000031  0.0000
  Ge     Ge        0.678289353298410    0.606768454435926    0.661060096959822  0.0000
  Ge     Ge        0.774320141105390    0.897073251731906    0.328199735708529  0.0000
  Ge     Ge        0.082854502510401    0.099165329369998    0.306579123490211  0.0000
  Si     Si        0.650207867154023    0.247575640988307    0.104951929815248  0.0000
  Si     Si        0.626705898738058    0.752150242599062    0.095279162972123  0.0000
  Si     Si        0.334217793116442    0.757433626952747    0.885198653278073  0.0000
  Si     Si        0.840506403175416    0.747819461046053    0.897026446270866  0.0000
  Si     Si        0.137224461410528    0.742745602928387    0.102322977156732  0.0000
  Si     Si        0.140848516408768    0.256684196499668    0.100303631368716  0.0000
  Si     Si        0.849209049264674    0.260749291800204    0.894465109915393  0.0000
  Si     Si        0.282415444457127    0.397475632614634    0.326917962472021  0.0000
  Si     Si        0.677728410174627    0.398945800612353    0.668818619392106  0.0000
  Si     Si        0.279463709505301    0.597914740324390    0.323124818313217  0.0000
  Si     Si        0.171239699897713    0.897818232205473    0.666322175189358  0.0000
  Si     Si        0.180946775977326    0.102133596876037    0.666759081539445  0.0000
  Si     Si        0.775315821714562    0.099823362112838    0.330558190455723  0.0000
  Si     Si        0.379218102009000    0.402489184957889    0.684948807637858  0.0000
  Si     Si        0.581378851443910    0.397509630235718    0.310249982106867  0.0000
  Si     Si        0.579878233797697    0.599761650742253    0.301677610272234  0.0000
  Si     Si        0.373530475776180    0.605212031072208    0.677757551001968  0.0000
  Si     Si        0.877539235684424    0.901694087712153    0.695022558045824  0.0000
  Si     Si        0.080603265167136    0.895370375281700    0.308478351507045  0.0000
  Si     Si        0.882464203084915    0.104343708967553    0.689195813649845  0.0000
  O3     O3        0.520877998543943    0.226643894997254    0.968937031755053  0.0000
  O2     O2        0.490145076372991    0.774231240186212    0.967282865505368  0.0000
  O2     O2        0.993276949194649    0.726853214766768    0.986036329506913  0.0000
  O2     O2        0.006583267819007    0.281131543365866    0.967739486015171  0.0000
  O3     O3        0.300469189914143    0.155299777908310    0.775567406071087  0.0000
  O2     O2        0.672486005871965    0.170746029981977    0.232108263468680  0.0000
  O3     O3        0.653863834810723    0.826004637439870    0.226652032210784  0.0000
  O2     O2        0.289355673198985    0.838563106456412    0.769028011440678  0.0000
  O3     O3        0.800907139471342    0.673559177942138    0.767714848624015  0.0000
  O2     O2        0.167745950335398    0.659184631980001    0.215413350516948  0.0000
  O2     O2        0.167272228235763    0.332128964704286    0.233520275227119  0.0000
  O2     O2        0.791896651372379    0.336581361107817    0.771190138008326  0.0000
  O3     O3        0.319468991844957    0.342342071576119    0.793698268736835  0.0000
  O2     O2        0.634679166732789    0.338660097575146    0.190582151837358  0.0000
  O2     O2        0.617775616926384    0.656919337906941    0.169604009744688  0.0000
  O2     O2        0.311678906518814    0.666337271503485    0.789213468364022  0.0000
  O2     O2        0.825457119890770    0.843854279005238    0.817483391743064  0.0000
  O2     O2        0.140542148097764    0.830169199825752    0.202736487964975  0.0000
  O3     O3        0.125356557229327    0.162519535520054    0.170515628588219  0.0000
  O2     O2        0.829425426131282    0.167350931817535    0.804950171635701  0.0000
  O3     O3        0.271142709256371    0.252355818639219    0.037071750189785  0.0000
  O2     O2        0.777793688995689    0.257121273738054    0.033490881758200  0.0000
  O2     O2        0.749138798505873    0.747080855033900    0.016295658982684  0.0000
  O2     O2        0.251213381100390    0.752664796532011    0.012184121683568  0.0000
  O2     O2        0.425516743513793    0.374290972328155    0.293342444944182  0.0000
  O2     O2        0.535026433662747    0.375667423379922    0.702908670921276  0.0000
  O3     O3        0.524906589820285    0.635236638693921    0.691281594216306  0.0000
  O2     O2        0.426637660410066    0.620351269051622    0.303718087169159  0.0000
  O3     O3        0.919377793093874    0.888357508189552    0.267349056834862  0.0000
  O2     O2        0.037446579514880    0.885322097185355    0.725083677999813  0.0000
  O2     O2        0.042010521915671    0.119616991329516    0.715883010961862  0.0000
  O3     O3        0.911841550962529    0.100666132190399    0.277742019024194  0.0000
  O2     O2        0.293887248085105    0.386903436126784    0.508328438650065  0.0000
  O2     O2        0.667487606094948    0.382947467390119    0.486817729411689  0.0000
  O3     O3        0.675522547564868    0.621290541654313    0.468750524974982  0.0000
  O2     O2        0.281825432992568    0.614049618264900    0.502072835656208  0.0000
  O3     O3        0.802228355427784    0.873501527794832    0.522669125380079  0.0000
  O2     O2        0.140123627771529    0.868438265608958    0.488054970806663  0.0000
  O3     O3        0.162701815225988    0.132689120559816    0.491637628571023  0.0000
  O2     O2        0.806049804460129    0.125658589727190    0.512286646787673  0.0000
  O2     O2        0.241230292806155    0.497217027539113    0.275527421776327  0.0000
  O3     O3        0.715465541481833    0.498758892589292    0.711608161438098  0.0000
  O3     O3        0.713000182758754    0.003414068639081    0.303234927065108  0.0000
  O2     O2        0.216597822721694    0.998843340915703    0.681130064271837  0.0000
  O2     O2        0.372325500960756    0.504389118737565    0.731597448110310  0.0000
  O2     O2        0.595459032244413    0.497706687704240    0.261440056946226  0.0000
  O2     O2        0.851647978710906    0.004129934837454    0.725891456292403  0.0000
  O3     O3        0.127489386264347    0.991935611042854    0.280032461422165  0.0000
