data_c00705.vasp
_audit_creation_method             Generated by GULP
_audit_author_name                 Salvador R. G. Balestra
_symmetry_space_group_name_H-M     'P 1             '
_symmetry_Int_Tables_number        1

loop_
_symmetry_equiv_pos_site_id
_symmetry_equiv_pos_as_xyz
_cell_length_a                       10.2703
_cell_length_b                       15.2170
_cell_length_c                        8.9285
_cell_angle_alpha                   89.8935
_cell_angle_beta                   104.9255
_cell_angle_gamma                   89.8840

loop_
_atom_site_label
_atom_site_type_symbol
_atom_site_fract_x
_atom_site_fract_y
_atom_site_fract_z
_atom_site_charge
  Ge     Ge        0.351599999999962    0.244500000000016    0.893900000000031  0.0000
  Ge     Ge        0.710476530421063    0.397666035538865    0.671055669628348  0.0000
  Ge     Ge        0.802921838038514    0.902393142911513    0.329955393498592  0.0000
  Ge     Ge        0.209340657932752    0.894574341464467    0.662620071205438  0.0000
  Si     Si        0.650584641742233    0.246610304810372    0.106214631556417  0.0000
  Si     Si        0.645006422662340    0.757440009622585    0.105943194762644  0.0000
  Si     Si        0.351049315319787    0.748623621689278    0.889499900340784  0.0000
  Si     Si        0.850851300995591    0.747593464618136    0.896199137696481  0.0000
  Si     Si        0.145130580520708    0.742283322269577    0.096215231837849  0.0000
  Si     Si        0.147620020241607    0.255518081779085    0.110293961817097  0.0000
  Si     Si        0.856998933550813    0.252998208779950    0.901486295861708  0.0000
  Si     Si        0.313760513093511    0.400248253475124    0.326485618521164  0.0000
  Si     Si        0.705224328059439    0.604327118383093    0.671883825373488  0.0000
  Si     Si        0.311901712131574    0.603321940864783    0.325019613147790  0.0000
  Si     Si        0.214554508451747    0.098040332785097    0.669947951930409  0.0000
  Si     Si        0.815281776605613    0.108282081101432    0.337279113949938  0.0000
  Si     Si        0.405534890930397    0.396955642490245    0.681966536062971  0.0000
  Si     Si        0.614781312374789    0.402741821604899    0.306217525414647  0.0000
  Si     Si        0.612961155298739    0.603312175498895    0.312727757913756  0.0000
  Si     Si        0.405929842110015    0.601900016955638    0.679883901411257  0.0000
  Si     Si        0.906338591539743    0.898377802122527    0.688794076543725  0.0000
  Si     Si        0.107879390048850    0.898134406127095    0.301157797345219  0.0000
  Si     Si        0.111573986182272    0.098377501217397    0.310972916659422  0.0000
  Si     Si        0.919102805149961    0.102679434295050    0.694058734396354  0.0000
  O3     O3        0.497171936249837    0.222058008363613    0.032139345283531  0.0000
  O2     O2        0.489150224066031    0.762156435646248    0.017634736922745  0.0000
  O2     O2        0.990837138206285    0.720096677602590    0.014107007632447  0.0000
  O2     O2        0.988715423471676    0.271108161465657    0.039376764745111  0.0000
  O3     O3        0.329932187837637    0.162949096204813    0.755555037756908  0.0000
  O2     O2        0.708328488187167    0.177938294681343    0.243710696041657  0.0000
  O3     O3        0.676352137002882    0.840699547121962    0.216547407265211  0.0000
  O3     O3        0.332813078646583    0.826161611872233    0.766029538238515  0.0000
  O2     O2        0.814729412196264    0.672631861479889    0.765313751140337  0.0000
  O2     O2        0.198507301562102    0.664913783126223    0.219693331911454  0.0000
  O2     O2        0.203192771346231    0.338654817751937    0.218537686578138  0.0000
  O3     O3        0.835609798459437    0.331303519243849    0.778187106484627  0.0000
  O3     O3        0.346763556203374    0.344852529047778    0.802946081337311  0.0000
  O2     O2        0.660684249083314    0.344194585091750    0.179686209038279  0.0000
  O2     O2        0.674625653670549    0.668384380628617    0.208261463900708  0.0000
  O2     O2        0.346560538272775    0.656020973740041    0.800535762839709  0.0000
  O2     O2        0.859889446183287    0.842008061014976    0.818316546580933  0.0000
  O2     O2        0.157250438369892    0.836298809463045    0.180693373870634  0.0000
  O2     O2        0.174171329203018    0.165628482293133    0.210425358549124  0.0000
  O2     O2        0.866459377478138    0.160873179699122    0.815555782338753  0.0000
  O3     O3        0.216771066640007    0.245775900593432    0.972736203361430  0.0000
  O2     O2        0.728742656202921    0.246349172260593    0.972546880377341  0.0000
  O2     O2        0.736688149852169    0.756274043262907    0.986726942865277  0.0000
  O2     O2        0.227407826082726    0.748651797947178    0.967636950571253  0.0000
  O2     O2        0.459676913844103    0.379708542136488    0.299441458746460  0.0000
  O3     O3        0.557869862117747    0.365913986736576    0.699464576218410  0.0000
  O2     O2        0.560067091124877    0.629841704584432    0.697919910994449  0.0000
  O2     O2        0.456147698598020    0.625999377744218    0.294953536913634  0.0000
  O3     O3        0.957022958741782    0.872356214629213    0.303499067828540  0.0000
  O3     O3        0.052120857395786    0.865647757332687    0.680009658700275  0.0000
  O2     O2        0.072312915962535    0.128745697172596    0.700977396200649  0.0000
  O2     O2        0.959908751638339    0.127589833681093    0.305280050332284  0.0000
  O2     O2        0.318324648786865    0.381056726527179    0.505174425533739  0.0000
  O3     O3        0.706299283805822    0.386602520017589    0.477230721345662  0.0000
  O2     O2        0.698322356982323    0.613111976127527    0.489956477977728  0.0000
  O2     O2        0.317768539556840    0.620953622904964    0.504922223900734  0.0000
  O3     O3        0.803380839685349    0.887852575272190    0.522013680361888  0.0000
  O3     O3        0.207658531020334    0.887097976028759    0.469389796891806  0.0000
  O2     O2        0.202580042348088    0.098958276722044    0.486291537165962  0.0000
  O2     O2        0.825727467062236    0.118602780564274    0.520414845327771  0.0000
  O2     O2        0.274478462194612    0.501731280723603    0.284296741522651  0.0000
  O3     O3        0.744685594543693    0.505808401784837    0.725903138261384  0.0000
  O3     O3        0.768559141211707    0.011347769780692    0.282210715417369  0.0000
  O3     O3        0.248253305939869    0.999706886766595    0.730142736339756  0.0000
  O2     O2        0.401871708623796    0.499871964745562    0.720736114589942  0.0000
  O2     O2        0.626291068950046    0.504019843778225    0.256989077262712  0.0000
  O2     O2        0.912563020573842    0.000720047985314    0.739614475078640  0.0000
  O2     O2        0.110632865930213    0.999642939232465    0.244478739166373  0.0000
