data_c00714.vasp
_audit_creation_method             Generated by GULP
_audit_author_name                 Salvador R. G. Balestra
_symmetry_space_group_name_H-M     'P 1             '
_symmetry_Int_Tables_number        1

loop_
_symmetry_equiv_pos_site_id
_symmetry_equiv_pos_as_xyz
_cell_length_a                       10.3006
_cell_length_b                       15.2644
_cell_length_c                        8.9363
_cell_angle_alpha                   90.1383
_cell_angle_beta                   105.2562
_cell_angle_gamma                   89.5945

loop_
_atom_site_label
_atom_site_type_symbol
_atom_site_fract_x
_atom_site_fract_y
_atom_site_fract_z
_atom_site_charge
  Ge     Ge        0.351599999999962    0.244500000000016    0.893900000000031  0.0000
  Ge     Ge        0.712608088066758    0.401518196425376    0.671965126143655  0.0000
  Ge     Ge        0.798699679533355    0.903595850749123    0.325548559422961  0.0000
  Ge     Ge        0.117010632098653    0.099830652625851    0.308528572448152  0.0000
  Si     Si        0.650755429298761    0.249100895713519    0.106494695796453  0.0000
  Si     Si        0.649679515481336    0.758197227854328    0.100074723151174  0.0000
  Si     Si        0.355289006557818    0.752183698468832    0.885121319963449  0.0000
  Si     Si        0.857594721324244    0.749253936469756    0.894798532225594  0.0000
  Si     Si        0.153219887879425    0.740413407467266    0.097544827882629  0.0000
  Si     Si        0.148182779919676    0.258389894773602    0.104168387023448  0.0000
  Si     Si        0.854816658157386    0.255165947460233    0.901288692133803  0.0000
  Si     Si        0.314592401374187    0.399676445778893    0.324104915952467  0.0000
  Si     Si        0.702054413344063    0.607661133284320    0.666903553181703  0.0000
  Si     Si        0.307244774655926    0.601046212360677    0.323052461761787  0.0000
  Si     Si        0.198312870101522    0.893698908312608    0.662081961146009  0.0000
  Si     Si        0.213385262143695    0.096179647858762    0.673955264614530  0.0000
  Si     Si        0.812778984009813    0.107608234569489    0.331810744813894  0.0000
  Si     Si        0.407649123129686    0.398427557755958    0.682317068810376  0.0000
  Si     Si        0.613592296454967    0.403877829630600    0.306012748543532  0.0000
  Si     Si        0.605724327976752    0.605368604772608    0.308602120542876  0.0000
  Si     Si        0.402559595628523    0.601263159916745    0.679037865895077  0.0000
  Si     Si        0.902995996036006    0.901328894835358    0.690259239854554  0.0000
  Si     Si        0.104661679492077    0.895967489742138    0.302398375907475  0.0000
  Si     Si        0.916393284100929    0.103739635718565    0.693187433959019  0.0000
  O3     O3        0.496279867287770    0.226584089887622    0.035858408977620  0.0000
  O2     O2        0.507244284063057    0.771117611629037    0.977750626140352  0.0000
  O2     O2        0.007565662479416    0.721271318555805    0.985814387439183  0.0000
  O2     O2        0.986792431797007    0.268694980028270    0.041893010125589  0.0000
  O3     O3        0.331971715308435    0.152066982661131    0.779052331061878  0.0000
  O2     O2        0.707030237208679    0.179243095007117    0.241778299270733  0.0000
  O3     O3        0.673226689890495    0.838552300675282    0.218116670778966  0.0000
  O2     O2        0.312392770092084    0.830384860684489    0.761936149019458  0.0000
  O2     O2        0.807772978231303    0.676669979462099    0.762574354784586  0.0000
  O2     O2        0.189693972905067    0.660228605078788    0.218291708487457  0.0000
  O2     O2        0.200505184185368    0.337850407758012    0.223335896645227  0.0000
  O3     O3        0.836547592407339    0.335442128586787    0.783016153622311  0.0000
  O3     O3        0.346798229358737    0.340256488603359    0.791907918934530  0.0000
  O2     O2        0.664620543653864    0.346291406176941    0.181738537181984  0.0000
  O2     O2        0.658806981640733    0.667475981574949    0.194413497146155  0.0000
  O2     O2        0.343162892290737    0.660028708612281    0.794372260380629  0.0000
  O2     O2        0.853810265616224    0.844424612470061    0.815699095316950  0.0000
  O2     O2        0.157029380716035    0.830262643839291    0.191207313054598  0.0000
  O3     O3        0.182474864477936    0.166910000731147    0.194086496302661  0.0000
  O2     O2        0.862052443140466    0.164937857895411    0.809114083705246  0.0000
  O3     O3        0.213447635194303    0.260567038757889    0.963435468915083  0.0000
  O2     O2        0.726522517493564    0.247981902080470    0.971106428144858  0.0000
  O2     O2        0.767026346608990    0.754669264648285    0.013769950693147  0.0000
  O2     O2        0.261833377382826    0.747765122898644    0.000423844271862  0.0000
  O2     O2        0.458896454664653    0.377885686102444    0.293724157254231  0.0000
  O3     O3        0.561827470857173    0.371337776248481    0.704283245290263  0.0000
  O2     O2        0.556342746199461    0.627763195274774    0.694685902867184  0.0000
  O2     O2        0.449759644462437    0.627403337116307    0.293723311423277  0.0000
  O3     O3        0.944594626973687    0.890145344877610    0.268776733425007  0.0000
  O2     O2        0.061147600662180    0.882000039092499    0.713028088084309  0.0000
  O2     O2        0.076712115332692    0.114689220385978    0.727151453368656  0.0000
  O3     O3        0.945369551957817    0.112042104064894    0.271798328605872  0.0000
  O2     O2        0.324118748063532    0.383866180588075    0.504065300619127  0.0000
  O3     O3        0.704302173634469    0.387687130635275    0.477757834206016  0.0000
  O2     O2        0.693500227006660    0.619193590574097    0.484817900645386  0.0000
  O2     O2        0.313509043218231    0.616113709057795    0.503365571393018  0.0000
  O3     O3        0.822065941722919    0.876465643955885    0.518333985059385  0.0000
  O2     O2        0.171989955220687    0.870261656733056    0.481558778577734  0.0000
  O3     O3        0.192311005881684    0.125683607351737    0.498258136894770  0.0000
  O2     O2        0.847363098953631    0.129368810031815    0.515485968355375  0.0000
  O2     O2        0.274286006228369    0.500036833956708    0.277954967858723  0.0000
  O3     O3        0.748017201321913    0.510001936822731    0.719458157699305  0.0000
  O3     O3        0.749233942668027    0.011942002764070    0.302165868335442  0.0000
  O2     O2        0.249423196671026    0.993114461600726    0.690231406867424  0.0000
  O2     O2        0.398037489814913    0.500395242219762    0.727112623024499  0.0000
  O2     O2        0.621450756216551    0.505292929707649    0.258983919593273  0.0000
  O2     O2        0.880540505222264    0.003713314923003    0.723384175261963  0.0000
  O3     O3        0.149752843616345    0.992356541551940    0.270268881826034  0.0000
