data_c00711.vasp
_audit_creation_method             Generated by GULP
_audit_author_name                 Salvador R. G. Balestra
_symmetry_space_group_name_H-M     'P 1             '
_symmetry_Int_Tables_number        1

loop_
_symmetry_equiv_pos_site_id
_symmetry_equiv_pos_as_xyz
_cell_length_a                       10.2850
_cell_length_b                       15.2182
_cell_length_c                        8.9579
_cell_angle_alpha                   89.7605
_cell_angle_beta                   105.2083
_cell_angle_gamma                   90.0190

loop_
_atom_site_label
_atom_site_type_symbol
_atom_site_fract_x
_atom_site_fract_y
_atom_site_fract_z
_atom_site_charge
  Ge     Ge        0.351599999999962    0.244500000000016    0.893900000000031  0.0000
  Ge     Ge        0.707800175105144    0.404308518616581    0.665576441132126  0.0000
  Ge     Ge        0.792361965068187    0.910652800555912    0.322863896275172  0.0000
  Ge     Ge        0.396750467954937    0.605972286181462    0.682003223783776  0.0000
  Si     Si        0.651546515717456    0.256253109460137    0.103729376949478  0.0000
  Si     Si        0.648710565815576    0.764372912986424    0.095919140142579  0.0000
  Si     Si        0.352720243488189    0.758946254235799    0.887515496824909  0.0000
  Si     Si        0.858023042901187    0.753099362900430    0.893390447791656  0.0000
  Si     Si        0.153913983667897    0.750588797593826    0.099425230159799  0.0000
  Si     Si        0.147116997723281    0.259364665713754    0.109217264616742  0.0000
  Si     Si        0.856313545668557    0.261958375281742    0.898277628465959  0.0000
  Si     Si        0.312141190004439    0.404986620401002    0.323224485128846  0.0000
  Si     Si        0.698421775427768    0.613529805192644    0.667156924707696  0.0000
  Si     Si        0.300166335753149    0.605719490546420    0.321793025599972  0.0000
  Si     Si        0.192706379727976    0.898010967263950    0.660648053880478  0.0000
  Si     Si        0.209294811843828    0.099523565121345    0.670015832684300  0.0000
  Si     Si        0.811688937955832    0.115652564411951    0.335397236997933  0.0000
  Si     Si        0.406841441438085    0.398924073722732    0.681335286162226  0.0000
  Si     Si        0.611174822018573    0.410671830427807    0.303095233155150  0.0000
  Si     Si        0.602602068364009    0.612208499451262    0.311538151904762  0.0000
  Si     Si        0.895997512157722    0.906197411637915    0.685596743749201  0.0000
  Si     Si        0.098537157316231    0.902801856575709    0.304433019272705  0.0000
  Si     Si        0.111106009736925    0.103577646921631    0.313540111116747  0.0000
  Si     Si        0.913164068236448    0.109518024808948    0.692406716611678  0.0000
  O3     O3        0.499571957724004    0.227568504269471    0.031151308327102  0.0000
  O2     O2        0.509879531931586    0.774583655033784    0.965674401631232  0.0000
  O2     O2        0.011504409037549    0.731714158718723    0.980697687605813  0.0000
  O2     O2        0.989237884018039    0.277632012216645    0.035647770978137  0.0000
  O3     O3        0.329503520172700    0.155798309094971    0.769751243646705  0.0000
  O2     O2        0.712465902924768    0.189294374664339    0.242787953273939  0.0000
  O3     O3        0.668102638538438    0.847020241820150    0.208576711053077  0.0000
  O2     O2        0.306526634550093    0.833371763119537    0.756360998688801  0.0000
  O2     O2        0.813272214018351    0.676951111592830    0.766896088043459  0.0000
  O2     O2        0.187719364601128    0.666838180032288    0.212618792869865  0.0000
  O2     O2        0.202337283350116    0.339702615185543    0.223753769332332  0.0000
  O3     O3        0.835992353722900    0.340865109219779    0.776037777373097  0.0000
  O3     O3        0.342618821483468    0.339924570793295    0.789182274711243  0.0000
  O2     O2        0.657199067890792    0.354285385594066    0.174517759684970  0.0000
  O2     O2        0.651893976907763    0.675768573670034    0.195721403512555  0.0000
  O3     O3        0.330104602429002    0.664869705494744    0.807100536717618  0.0000
  O2     O2        0.845627747008321    0.847951106350951    0.809318808074827  0.0000
  O2     O2        0.154064951381772    0.839848930479043    0.193500243502526  0.0000
  O2     O2        0.169406734339312    0.168177931741109    0.205648953925267  0.0000
  O2     O2        0.862442928864481    0.169883465355287    0.811399989510524  0.0000
  O3     O3        0.218846585264537    0.251793280113819    0.974710010043171  0.0000
  O2     O2        0.729008714885110    0.257128359820910    0.970455464961855  0.0000
  O2     O2        0.770261528062626    0.756410723047986    0.016003099947634  0.0000
  O2     O2        0.269563004250568    0.765030729614571    0.013572665032066  0.0000
  O2     O2        0.458433482873476    0.382823643862529    0.299279758706779  0.0000
  O3     O3        0.557159098040270    0.366387757916907    0.691218782263312  0.0000
  O3     O3        0.556450219375222    0.643835907576436    0.690427334687997  0.0000
  O2     O2        0.448656290113915    0.633215599553223    0.308875039338006  0.0000
  O3     O3        0.942906317878172    0.883688820445475    0.285220530207955  0.0000
  O2     O2        0.047848796573132    0.876877471641806    0.689319678743615  0.0000
  O2     O2        0.069513195611800    0.129751352187746    0.705985577022268  0.0000
  O2     O2        0.956450968151334    0.126607760898823    0.300912145048349  0.0000
  O2     O2        0.317283665993183    0.395066370932708    0.503227257714266  0.0000
  O3     O3        0.706330902266975    0.394996192493326    0.472697356510289  0.0000
  O2     O2        0.695707964325360    0.623365470019209    0.485675447111737  0.0000
  O3     O3        0.294168065680303    0.616374049309807    0.496552735806275  0.0000
  O3     O3        0.801190094611167    0.892222883540249    0.515641353789559  0.0000
  O2     O2        0.183533400206300    0.885052300186853    0.480365587230783  0.0000
  O2     O2        0.199096038025385    0.114612550555357    0.489151846054441  0.0000
  O2     O2        0.825291854231008    0.128701641963703    0.517813397136344  0.0000
  O2     O2        0.270656218401329    0.504571776443504    0.268684522206371  0.0000
  O3     O3        0.729750737210534    0.513260933386142    0.718337583606291  0.0000
  O3     O3        0.754338195731908    0.020053154279110    0.283485434157758  0.0000
  O2     O2        0.235569170256982    0.997076074630198    0.712056198379505  0.0000
  O3     O3        0.409482230953068    0.498189414643550    0.739784678950764  0.0000
  O2     O2        0.615278996106269    0.512827502381175    0.255593804084882  0.0000
  O2     O2        0.893726904447800    0.008138707881043    0.734460129427744  0.0000
  O2     O2        0.120157163565625    0.003602002209705    0.257965745947147  0.0000
