data_c00756.vasp
_audit_creation_method             Generated by GULP
_audit_author_name                 Salvador R. G. Balestra
_symmetry_space_group_name_H-M     'P 1             '
_symmetry_Int_Tables_number        1

loop_
_symmetry_equiv_pos_site_id
_symmetry_equiv_pos_as_xyz
_cell_length_a                       10.2179
_cell_length_b                       15.2020
_cell_length_c                        8.9746
_cell_angle_alpha                   89.9415
_cell_angle_beta                   105.4203
_cell_angle_gamma                   89.5906

loop_
_atom_site_label
_atom_site_type_symbol
_atom_site_fract_x
_atom_site_fract_y
_atom_site_fract_z
_atom_site_charge
  Ge     Ge        0.351599999999962    0.244500000000016    0.893900000000031  0.0000
  Ge     Ge        0.680942873218342    0.405600420546375    0.664221641276233  0.0000
  Ge     Ge        0.574305550650661    0.615925210240248    0.303661593264223  0.0000
  Ge     Ge        0.366332006543924    0.607809463445387    0.684406962190527  0.0000
  Si     Si        0.651507651184672    0.258605545444653    0.098007301162550  0.0000
  Si     Si        0.607535050638116    0.774335881474608    0.096541799147104  0.0000
  Si     Si        0.307766986082419    0.760336317821179    0.897000061807206  0.0000
  Si     Si        0.806032657994773    0.760224785093026    0.886372327208359  0.0000
  Si     Si        0.100856370103024    0.752112452088242    0.100269216629216  0.0000
  Si     Si        0.151955858515000    0.259371414486756    0.111267146646315  0.0000
  Si     Si        0.858126688448798    0.266171164817308    0.896229140025513  0.0000
  Si     Si        0.284803098563288    0.409949109487390    0.322876062574302  0.0000
  Si     Si        0.672253003659037    0.612168176896568    0.667660837018303  0.0000
  Si     Si        0.268731379737396    0.611964821630323    0.319357699812480  0.0000
  Si     Si        0.769455072709785    0.914345396539852    0.321916906315032  0.0000
  Si     Si        0.166983615501218    0.899630318959953    0.662101075873070  0.0000
  Si     Si        0.181922224158792    0.101954254668379    0.671856558556757  0.0000
  Si     Si        0.784073768563025    0.115819732422494    0.332429317453183  0.0000
  Si     Si        0.374322615036427    0.402799595746950    0.681558611446759  0.0000
  Si     Si        0.584383708303502    0.410070278650252    0.301217040854626  0.0000
  Si     Si        0.867132757612970    0.908383172874323    0.677040371086217  0.0000
  Si     Si        0.072685203161014    0.907011878053862    0.307663049172288  0.0000
  Si     Si        0.085654466560913    0.107999548223646    0.315811369868398  0.0000
  Si     Si        0.881681087104636    0.111375644179963    0.687920268331076  0.0000
  O3     O3        0.524553861711506    0.232282885122344    0.961901944779357  0.0000
  O2     O2        0.446514569489106    0.783880069365727    0.022870905529309  0.0000
  O2     O2        0.942767875178061    0.740819134231757    0.018168782591285  0.0000
  O2     O2        0.018216723292186    0.275973673966373    0.973021467440005  0.0000
  O3     O3        0.303580932087799    0.154280419969542    0.777245751199579  0.0000
  O2     O2        0.677178964402232    0.183991041885540    0.230969488917553  0.0000
  O2     O2        0.652987695039943    0.855615592666823    0.213999949709335  0.0000
  O2     O2        0.279831602350549    0.833937786085291    0.761825590519455  0.0000
  O2     O2        0.782667042671485    0.677564906310309    0.771875338297080  0.0000
  O2     O2        0.145306048121496    0.669407560004284    0.214708963037577  0.0000
  O2     O2        0.173318385938098    0.344339683567576    0.222873466045643  0.0000
  O3     O3        0.812406134359004    0.344202401674155    0.775058203861593  0.0000
  O3     O3        0.310768305573551    0.337788233038735    0.781834274309395  0.0000
  O2     O2        0.625960707775419    0.351310302927536    0.172480741863926  0.0000
  O3     O3        0.639867002939919    0.683489764922399    0.189006325208461  0.0000
  O3     O3        0.312595355704837    0.666737940729965    0.819339118771818  0.0000
  O2     O2        0.810549931915229    0.849694785982692    0.792618539078399  0.0000
  O2     O2        0.125553301281355    0.842993422059087    0.195280846434131  0.0000
  O2     O2        0.141420816271519    0.170954325449516    0.205360680621105  0.0000
  O2     O2        0.828456798032809    0.173274000501875    0.804485350381019  0.0000
  O3     O3        0.281011023243217    0.246767349445469    0.046329312518155  0.0000
  O2     O2        0.780734201245421    0.268879294639765    0.029615587334689  0.0000
  O2     O2        0.681928317476291    0.774919761748524    0.961066715553598  0.0000
  O2     O2        0.184670774434793    0.758464981900731    0.974774518795403  0.0000
  O2     O2        0.420454919600635    0.409247788754432    0.264192918217166  0.0000
  O3     O3        0.537912009540532    0.393892375324146    0.729538273982450  0.0000
  O3     O3        0.540070137335553    0.612178039522145    0.731529192111724  0.0000
  O3     O3        0.399372119552035    0.624694373537597    0.255225850900241  0.0000
  O2     O2        0.913156296243748    0.891795688979207    0.288519282734316  0.0000
  O2     O2        0.021610045565876    0.879715758260353    0.691930758564504  0.0000
  O2     O2        0.040409011037850    0.130738666864321    0.707440859860198  0.0000
  O2     O2        0.929013467680968    0.130748479844378    0.299148814430719  0.0000
  O2     O2        0.322975793601455    0.378603286434254    0.499912694644253  0.0000
  O3     O3        0.651097904960757    0.374861875588455    0.472564884828952  0.0000
  O3     O3        0.633468319233180    0.647192646622438    0.493291994416651  0.0000
  O3     O3        0.298251707096275    0.641827090264205    0.496310823938299  0.0000
  O2     O2        0.778034351615651    0.894547835373294    0.501103463733803  0.0000
  O2     O2        0.157544900406682    0.885012727074160    0.482126079600483  0.0000
  O2     O2        0.171948962260042    0.120707697367474    0.492136432743406  0.0000
  O2     O2        0.796039306809093    0.132739636666091    0.512782142357326  0.0000
  O2     O2        0.225314368190095    0.509126989736284    0.308168845511187  0.0000
  O3     O3        0.731194293369858    0.514102201722622    0.674917619835461  0.0000
  O2     O2        0.732783649099592    0.016908246941575    0.286608880809823  0.0000
  O2     O2        0.209768501742611    0.998967892074956    0.709317119543390  0.0000
  O3     O3        0.324499785910300    0.499942309091045    0.706395560057157  0.0000
  O3     O3        0.627111599746242    0.509758087367613    0.282581161461938  0.0000
  O2     O2        0.859970751362411    0.009943707097860    0.726549743659181  0.0000
  O2     O2        0.098921671882689    0.007166074797041    0.264506804116774  0.0000
