data_c00763.vasp
_audit_creation_method             Generated by GULP
_audit_author_name                 Salvador R. G. Balestra
_symmetry_space_group_name_H-M     'P 1             '
_symmetry_Int_Tables_number        1

loop_
_symmetry_equiv_pos_site_id
_symmetry_equiv_pos_as_xyz
_cell_length_a                       10.2674
_cell_length_b                       15.2592
_cell_length_c                        8.9480
_cell_angle_alpha                   89.8571
_cell_angle_beta                   105.4088
_cell_angle_gamma                   89.7963

loop_
_atom_site_label
_atom_site_type_symbol
_atom_site_fract_x
_atom_site_fract_y
_atom_site_fract_z
_atom_site_charge
  Ge     Ge        0.351599999999962    0.244500000000016    0.893900000000031  0.0000
  Ge     Ge        0.715415146039914    0.399277869577219    0.668268127697539  0.0000
  Ge     Ge        0.405208006226721    0.602534539547303    0.683216400533236  0.0000
  Ge     Ge        0.123339321635198    0.103339098556615    0.313413467524739  0.0000
  Si     Si        0.653766929651872    0.248418010859682    0.105166138746466  0.0000
  Si     Si        0.666041106437514    0.761942269377387    0.101186984413552  0.0000
  Si     Si        0.368135848591175    0.757689768756880    0.893983164284426  0.0000
  Si     Si        0.866619915065533    0.748565361744511    0.887607580511403  0.0000
  Si     Si        0.162358104036988    0.746930428789369    0.096776556118240  0.0000
  Si     Si        0.149187303670209    0.261952852081819    0.104407208329900  0.0000
  Si     Si        0.856370617889437    0.251724492506704    0.898628174060575  0.0000
  Si     Si        0.320186654028788    0.403381842674402    0.316255535382680  0.0000
  Si     Si        0.714828699723961    0.603321978661705    0.668292684968155  0.0000
  Si     Si        0.313590201107238    0.606113191160668    0.321756239131006  0.0000
  Si     Si        0.808872579160945    0.906316068574985    0.324667572321442  0.0000
  Si     Si        0.204742678257445    0.893228388550234    0.663199706779298  0.0000
  Si     Si        0.218846728316995    0.094135127869860    0.677231402789030  0.0000
  Si     Si        0.816809493499386    0.108488233911604    0.333975315608090  0.0000
  Si     Si        0.409167147524400    0.397312491320335    0.676843587889511  0.0000
  Si     Si        0.616463224536092    0.405470179069267    0.297691367626681  0.0000
  Si     Si        0.615085092702800    0.607154656854111    0.307715923248435  0.0000
  Si     Si        0.907541385436747    0.899728668415319    0.680399197348301  0.0000
  Si     Si        0.109348754093028    0.900256798996981    0.305017846015463  0.0000
  Si     Si        0.918083638662825    0.102415079940520    0.689944685988508  0.0000
  O3     O3        0.496409040870513    0.232145494195448    0.038736400894678  0.0000
  O2     O2        0.522987217612320    0.778370021919637    0.979635012762512  0.0000
  O2     O2        0.021376752542712    0.729221966648192    0.973913246765108  0.0000
  O2     O2        0.986851880904872    0.269153235797817    0.040366384600142  0.0000
  O3     O3        0.334879546277898    0.148637307737426    0.789122246709795  0.0000
  O2     O2        0.704729939268888    0.173839292161405    0.234604171546865  0.0000
  O2     O2        0.695790344445587    0.844493735874142    0.217622993776553  0.0000
  O2     O2        0.320847459567051    0.828309962026623    0.755701576971678  0.0000
  O2     O2        0.823061550646239    0.671196710732246    0.764639286899898  0.0000
  O2     O2        0.196888538928033    0.661843755739672    0.206188863584090  0.0000
  O2     O2        0.199800919661558    0.344519769374590    0.217021871830970  0.0000
  O3     O3        0.836094533059793    0.328317077680671    0.772671686049561  0.0000
  O3     O3        0.343634746930471    0.332619368487737    0.773335960901592  0.0000
  O2     O2        0.675549634388742    0.345044613037645    0.183452881623565  0.0000
  O2     O2        0.668555028798291    0.672207271941350    0.197090941365659  0.0000
  O3     O3        0.352532908516176    0.662552466994371    0.817910117742681  0.0000
  O2     O2        0.849001954396252    0.841138383472315    0.796320425175673  0.0000
  O2     O2        0.158409983527762    0.832537815786694    0.197136358031930  0.0000
  O3     O3        0.188229892500576    0.172762343259079    0.201267094215432  0.0000
  O2     O2        0.869080656314069    0.159657993548704    0.814572418527518  0.0000
  O3     O3        0.213091810624040    0.262033112484981    0.962460115236487  0.0000
  O2     O2        0.726901670044900    0.244955532248932    0.967394336881313  0.0000
  O2     O2        0.779851644462496    0.752271553688893    0.010892828706194  0.0000
  O2     O2        0.278821588441998    0.765519249324417    0.013682428387481  0.0000
  O2     O2        0.454136076518396    0.391145978351006    0.256021956972782  0.0000
  O3     O3        0.570515112749039    0.387345008372419    0.727970341286690  0.0000
  O3     O3        0.577147134022260    0.612837629323501    0.717737283987974  0.0000
  O2     O2        0.455204509760568    0.621126749420472    0.279344086641018  0.0000
  O2     O2        0.952000971951707    0.884826913575997    0.292721631175363  0.0000
  O2     O2        0.060711467606582    0.869029626211049    0.692921007977264  0.0000
  O2     O2        0.072954167506704    0.124357342652676    0.698616975844130  0.0000
  O3     O3        0.957618642566901    0.130203927841855    0.299950711695368  0.0000
  O2     O2        0.355963472545344    0.374200181359829    0.494607195080810  0.0000
  O3     O3        0.685299754787040    0.378403503429159    0.472924482519464  0.0000
  O2     O2        0.689559477433424    0.625755494935988    0.486078079893157  0.0000
  O3     O3        0.326889733431638    0.635233182826839    0.495907183624932  0.0000
  O2     O2        0.816694455106705    0.887633347811055    0.504557844843096  0.0000
  O2     O2        0.196406204613456    0.885791483505529    0.481911774539812  0.0000
  O3     O3        0.219667929789837    0.111192252717073    0.501497666514348  0.0000
  O2     O2        0.827120984999852    0.122461139234814    0.516179206847078  0.0000
  O2     O2        0.272570832807451    0.504186488671937    0.300456878823792  0.0000
  O3     O3        0.771903879241328    0.505662057897767    0.700121585830095  0.0000
  O2     O2        0.772720399672213    0.008321823878667    0.286720440678656  0.0000
  O2     O2        0.243198944970550    0.991708662001367    0.719602066066396  0.0000
  O3     O3        0.365740405538763    0.495140039863721    0.706154185513452  0.0000
  O2     O2        0.645814336902282    0.507189444013521    0.267021761170215  0.0000
  O2     O2        0.903683376520021    0.000607983621276    0.731483937743842  0.0000
  O3     O3        0.131222732452409    0.997118676896641    0.250231658427384  0.0000
