data_c00776.vasp
_audit_creation_method             Generated by GULP
_audit_author_name                 Salvador R. G. Balestra
_symmetry_space_group_name_H-M     'P 1             '
_symmetry_Int_Tables_number        1

loop_
_symmetry_equiv_pos_site_id
_symmetry_equiv_pos_as_xyz
_cell_length_a                       10.2563
_cell_length_b                       15.2491
_cell_length_c                        8.9310
_cell_angle_alpha                   90.0244
_cell_angle_beta                   105.1306
_cell_angle_gamma                   90.1707

loop_
_atom_site_label
_atom_site_type_symbol
_atom_site_fract_x
_atom_site_fract_y
_atom_site_fract_z
_atom_site_charge
  Ge     Ge        0.351599999999962    0.244500000000016    0.893900000000031  0.0000
  Ge     Ge        0.715015774455189    0.600770451756074    0.668618685071882  0.0000
  Ge     Ge        0.312175035153135    0.598189858304947    0.322970242523262  0.0000
  Ge     Ge        0.618107530846910    0.394347393871015    0.305856681679472  0.0000
  Si     Si        0.651762859176877    0.235915040069055    0.101502609977736  0.0000
  Si     Si        0.651912972102338    0.756341657488139    0.096938752467453  0.0000
  Si     Si        0.354742616450951    0.752560320673161    0.894464048730074  0.0000
  Si     Si        0.855691562214640    0.749434207972976    0.888676711600814  0.0000
  Si     Si        0.149715321325457    0.742998813387455    0.103972665169732  0.0000
  Si     Si        0.142972286393526    0.252995985350225    0.103882129440650  0.0000
  Si     Si        0.851024876431150    0.248975282490055    0.894100968485265  0.0000
  Si     Si        0.312407216630781    0.392919973699812    0.326641371815121  0.0000
  Si     Si        0.716602058750204    0.396262095936993    0.670158315483493  0.0000
  Si     Si        0.816988871178562    0.895874723162508    0.324664519927182  0.0000
  Si     Si        0.211213899405695    0.895773861985081    0.668485831734352  0.0000
  Si     Si        0.217213902564020    0.097336694331626    0.663933585107701  0.0000
  Si     Si        0.818951998105109    0.098044289133023    0.326741221254405  0.0000
  Si     Si        0.414135873376854    0.400513934295496    0.684331131076255  0.0000
  Si     Si        0.614072041122565    0.600175775766419    0.299626814394072  0.0000
  Si     Si        0.414188678305489    0.602558772411236    0.687953317233506  0.0000
  Si     Si        0.910890226677567    0.898752167937410    0.681275130759848  0.0000
  Si     Si        0.118144398954523    0.895887581150300    0.310548083343818  0.0000
  Si     Si        0.117668741889625    0.096211150408751    0.305800843519843  0.0000
  Si     Si        0.918104143907888    0.101126054130290    0.682694905128787  0.0000
  O3     O3        0.492799481967346    0.221746576892981    0.039204973849834  0.0000
  O2     O2        0.495603333882342    0.774659583026916    0.016180172423423  0.0000
  O2     O2        0.993145299508669    0.735873239877663    0.018602279286585  0.0000
  O2     O2        0.983299845520571    0.268305770091401    0.032239949216985  0.0000
  O3     O3        0.331140838500843    0.160146945826936    0.760532250326948  0.0000
  O2     O2        0.703802502831247    0.159074126947376    0.225643321051282  0.0000
  O2     O2        0.702816446797037    0.835199558780093    0.218100732104358  0.0000
  O2     O2        0.322861197778396    0.832031167601212    0.771244716592443  0.0000
  O3     O3        0.839295927394136    0.669923052984736    0.769170429414675  0.0000
  O3     O3        0.183145065464614    0.661653297050146    0.218488492532191  0.0000
  O2     O2        0.196654802546852    0.328288897163728    0.230955129255415  0.0000
  O2     O2        0.824085716597238    0.332050764635349    0.779935236768140  0.0000
  O3     O3        0.364580498287278    0.343567456815970    0.806472359349221  0.0000
  O3     O3        0.681088091713883    0.329651396250130    0.184747003773001  0.0000
  O2     O2        0.671707493486881    0.664595870324160    0.188821579689341  0.0000
  O2     O2        0.355862093791560    0.661158112738676    0.805241293875621  0.0000
  O2     O2        0.852953870756058    0.841138206025808    0.798395470652895  0.0000
  O2     O2        0.178724269563470    0.833317786065680    0.202084312027438  0.0000
  O2     O2        0.171071648190897    0.158889758807205    0.190506301356881  0.0000
  O2     O2        0.866191060101868    0.161467624405923    0.800414726485861  0.0000
  O3     O3        0.213320339457061    0.254764608098426    0.965939881102867  0.0000
  O2     O2        0.722727477121072    0.232031473535228    0.961468362976483  0.0000
  O2     O2        0.731617583271964    0.752084837011952    0.965890871868932  0.0000
  O2     O2        0.239297758270664    0.743091757475776    0.982844138750728  0.0000
  O3     O3        0.444151825183035    0.384468939118913    0.262435619846730  0.0000
  O2     O2        0.576290519111793    0.396088809062680    0.720707932618389  0.0000
  O3     O3        0.574990142695382    0.610381205061291    0.739520804186409  0.0000
  O3     O3        0.451916666654445    0.604743248142775    0.250959239403193  0.0000
  O2     O2        0.960407663161336    0.874801821965798    0.290714286302904  0.0000
  O2     O2        0.067340076209289    0.875139953118632    0.701671007063743  0.0000
  O2     O2        0.075296971582440    0.121601521151460    0.700672916571390  0.0000
  O2     O2        0.960969249408241    0.117829544409678    0.288670068809466  0.0000
  O2     O2        0.350300640620846    0.366846105666067    0.508820252114097  0.0000
  O3     O3        0.689458188637596    0.363792115366186    0.494785544429533  0.0000
  O3     O3        0.670299291359168    0.630069344767183    0.476361091767089  0.0000
  O3     O3        0.354629666933633    0.633675639904856    0.512817636546265  0.0000
  O2     O2        0.826587870818541    0.878098367350657    0.505337629726891  0.0000
  O2     O2        0.201306384413721    0.879720160728982    0.487700008840100  0.0000
  O2     O2        0.203780331741034    0.111602866457261    0.481821181800229  0.0000
  O2     O2        0.832157961894141    0.118963497389551    0.506963845797306  0.0000
  O3     O3        0.256933921025985    0.490985894253649    0.308853863957818  0.0000
  O3     O3        0.774196384931300    0.494404236902446    0.685846162732412  0.0000
  O2     O2        0.777595880556864    0.997093583990958    0.287317591341850  0.0000
  O2     O2        0.253682777950939    0.996356146887499    0.710426038136426  0.0000
  O2     O2        0.370364716360511    0.501091338836416    0.699511313922993  0.0000
  O3     O3        0.660701171936203    0.501666726660233    0.280096750108727  0.0000
  O2     O2        0.897336791004091    0.000140133183228    0.724154886522553  0.0000
  O2     O2        0.135104142649369    0.995682991201655    0.259127931395149  0.0000
