data_c00758.vasp
_audit_creation_method             Generated by GULP
_audit_author_name                 Salvador R. G. Balestra
_symmetry_space_group_name_H-M     'P 1             '
_symmetry_Int_Tables_number        1

loop_
_symmetry_equiv_pos_site_id
_symmetry_equiv_pos_as_xyz
_cell_length_a                       10.1703
_cell_length_b                       15.2692
_cell_length_c                        8.9414
_cell_angle_alpha                   90.1828
_cell_angle_beta                   105.2226
_cell_angle_gamma                   89.8730

loop_
_atom_site_label
_atom_site_type_symbol
_atom_site_fract_x
_atom_site_fract_y
_atom_site_fract_z
_atom_site_charge
  Ge     Ge        0.351599999999962    0.244500000000016    0.893900000000031  0.0000
  Ge     Ge        0.717713258439449    0.396494344050392    0.676054855930871  0.0000
  Ge     Ge        0.623223433497098    0.603016166414675    0.309525227667790  0.0000
  Ge     Ge        0.121652451992208    0.896551604798423    0.306261017933963  0.0000
  Si     Si        0.653726215313376    0.240573751193525    0.109311285839806  0.0000
  Si     Si        0.651074112317396    0.761720094982870    0.103195786844741  0.0000
  Si     Si        0.354277887802379    0.748393239107758    0.893948427877771  0.0000
  Si     Si        0.852534741405716    0.750013074308928    0.893658895693120  0.0000
  Si     Si        0.150511647732460    0.737979775568869    0.099539269143114  0.0000
  Si     Si        0.150350048972099    0.256638883731059    0.111995696470203  0.0000
  Si     Si        0.857545022437614    0.248878675777792    0.902646147466370  0.0000
  Si     Si        0.321258322926124    0.399208230380360    0.327824048935893  0.0000
  Si     Si        0.720931518943159    0.600055623415471    0.672544107944817  0.0000
  Si     Si        0.315671420711778    0.602592141800537    0.326778144765133  0.0000
  Si     Si        0.813732352990231    0.899291704768110    0.328651352184656  0.0000
  Si     Si        0.218724695080840    0.894688510720338    0.669428031308160  0.0000
  Si     Si        0.222340731176282    0.094157650848767    0.672607060525674  0.0000
  Si     Si        0.822923359972608    0.102717270907543    0.336400769922062  0.0000
  Si     Si        0.408894611019962    0.397455986410559    0.683942201019322  0.0000
  Si     Si        0.623774819590002    0.399272163587672    0.308578279161178  0.0000
  Si     Si        0.414327744364437    0.600820090726054    0.678608867534906  0.0000
  Si     Si        0.913716753139998    0.897824771056833    0.681815045856855  0.0000
  Si     Si        0.122990051617610    0.099329018816150    0.312440462260625  0.0000
  Si     Si        0.921277395121006    0.100380085156867    0.691972976847989  0.0000
  O3     O3        0.495071003670182    0.225688548405790    0.039718230084335  0.0000
  O2     O2        0.489448016310865    0.767538442239245    0.028770430111001  0.0000
  O2     O2        0.989053585525262    0.730446169570622    0.026288175068861  0.0000
  O2     O2        0.987950788836304    0.266678866593150    0.045254160471631  0.0000
  O3     O3        0.336785952697457    0.158794840187917    0.763691107753718  0.0000
  O2     O2        0.707467861905541    0.163475958151787    0.231918965941869  0.0000
  O2     O2        0.691194207571304    0.843091625753627    0.221778028653249  0.0000
  O2     O2        0.327168886395908    0.830288423035288    0.777839978743564  0.0000
  O2     O2        0.825613790704617    0.668560428825192    0.776270658091027  0.0000
  O2     O2        0.192470726660970    0.658819392926656    0.221682262837518  0.0000
  O2     O2        0.205169267943954    0.341410300703431    0.216447375420547  0.0000
  O3     O3        0.839992384985794    0.326921173784054    0.780759835415575  0.0000
  O3     O3        0.346887356305321    0.343182921816031    0.799546798043964  0.0000
  O2     O2        0.678621280145857    0.333928136797985    0.197360316524279  0.0000
  O3     O3        0.687790797262456    0.671562002228621    0.195168890500639  0.0000
  O2     O2        0.367861000806059    0.659633741523270    0.802962263744912  0.0000
  O2     O2        0.864570905058604    0.839165329629826    0.803691856971331  0.0000
  O3     O3        0.184415109251650    0.829799881543034    0.187196686492076  0.0000
  O2     O2        0.185356877017576    0.170016367750772    0.218341555738431  0.0000
  O2     O2        0.869306185692674    0.157762938931905    0.814810392439346  0.0000
  O3     O3        0.213315234744577    0.247628877471739    0.968899401969557  0.0000
  O2     O2        0.725910634261546    0.241878094788289    0.969688909706421  0.0000
  O2     O2        0.727940276522909    0.765137338976714    0.968594379128655  0.0000
  O2     O2        0.228300396682880    0.732225817997936    0.965961500495266  0.0000
  O2     O2        0.468180422760112    0.373339847760171    0.305196156130820  0.0000
  O3     O3        0.562484587939911    0.365789465721733    0.702077545112864  0.0000
  O2     O2        0.567125086011082    0.624359253516243    0.676518541765048  0.0000
  O3     O3        0.457425417741067    0.633381317141161    0.299265314675625  0.0000
  O3     O3        0.954137594793250    0.870908934668382    0.294384180777022  0.0000
  O2     O2        0.067648758893052    0.873098066168905    0.684379308418434  0.0000
  O2     O2        0.078829009366736    0.121911712821026    0.706080207602601  0.0000
  O2     O2        0.966567715045328    0.124168060658571    0.302110904762051  0.0000
  O2     O2        0.321309630607966    0.383348817079408    0.505896814113569  0.0000
  O3     O3        0.715709057843826    0.392226921165862    0.482825284340682  0.0000
  O3     O3        0.726507866118959    0.606884428567933    0.496186294122182  0.0000
  O2     O2        0.316655500756385    0.616971553301961    0.506769118160283  0.0000
  O2     O2        0.819275061010207    0.881203004222149    0.508619104040381  0.0000
  O3     O3        0.221056575168841    0.882902310400306    0.493312522563729  0.0000
  O2     O2        0.210660993161039    0.100114874364861    0.490330663894313  0.0000
  O2     O2        0.832067360367911    0.120803053327012    0.517147706898646  0.0000
  O2     O2        0.290832529660217    0.500487873703698    0.282676790260365  0.0000
  O3     O3        0.757012684884367    0.503080289340292    0.736936120187320  0.0000
  O2     O2        0.784963208298252    0.001912948819524    0.293375570826730  0.0000
  O2     O2        0.258099564605177    0.994099557218962    0.725897754696553  0.0000
  O2     O2        0.407737916963062    0.500074596582077    0.727502619265914  0.0000
  O3     O3        0.626342089879775    0.496602357436484    0.244688344883334  0.0000
  O2     O2        0.903999433745524    0.998747968465376    0.730799209662760  0.0000
  O3     O3        0.131126261886158    0.003164922714727    0.245652788714865  0.0000
