data_c00728.vasp
_audit_creation_method             Generated by GULP
_audit_author_name                 Salvador R. G. Balestra
_symmetry_space_group_name_H-M     'P 1             '
_symmetry_Int_Tables_number        1

loop_
_symmetry_equiv_pos_site_id
_symmetry_equiv_pos_as_xyz
_cell_length_a                       10.2296
_cell_length_b                       15.3257
_cell_length_c                        8.8966
_cell_angle_alpha                   89.8909
_cell_angle_beta                   105.4124
_cell_angle_gamma                   90.1659

loop_
_atom_site_label
_atom_site_type_symbol
_atom_site_fract_x
_atom_site_fract_y
_atom_site_fract_z
_atom_site_charge
  Ge     Ge        0.351599999999962    0.244500000000016    0.893900000000031  0.0000
  Ge     Ge        0.711575235710653    0.397570900889326    0.674783970939799  0.0000
  Ge     Ge        0.222009554863477    0.090466100532037    0.667446202157774  0.0000
  Ge     Ge        0.613380605010116    0.400938323522241    0.288952670554703  0.0000
  Si     Si        0.656534883934017    0.242859170259974    0.098213150758511  0.0000
  Si     Si        0.642331909491560    0.760982015152197    0.094587857724992  0.0000
  Si     Si        0.346923745663699    0.746308930838218    0.882198760120319  0.0000
  Si     Si        0.845381502834933    0.747394361715722    0.882521585412343  0.0000
  Si     Si        0.142436060624019    0.738138728890391    0.092679736450517  0.0000
  Si     Si        0.141981143478096    0.252113558161252    0.102397736692979  0.0000
  Si     Si        0.851742730119307    0.246504784312456    0.888130806087456  0.0000
  Si     Si        0.312078652836275    0.396180780487953    0.310556282034441  0.0000
  Si     Si        0.706306788578316    0.599913605979574    0.662564901102364  0.0000
  Si     Si        0.304942703086540    0.598227637440644    0.318440009604219  0.0000
  Si     Si        0.806655342136567    0.900115267685518    0.316470541183062  0.0000
  Si     Si        0.204171934772839    0.888141917536913    0.656642958282303  0.0000
  Si     Si        0.819494133812371    0.100792028970149    0.325025715668453  0.0000
  Si     Si        0.406112988956168    0.395434583726306    0.678032526222887  0.0000
  Si     Si        0.607656140014659    0.602836588477350    0.298381835004962  0.0000
  Si     Si        0.402149708407956    0.596927511183583    0.675081695638108  0.0000
  Si     Si        0.905321778857936    0.895848043251239    0.674211422962918  0.0000
  Si     Si        0.106137292536041    0.894869011862863    0.295001990538047  0.0000
  Si     Si        0.121239072533289    0.093230850836928    0.302704351040008  0.0000
  Si     Si        0.915215031353036    0.098636162560765    0.680708694192829  0.0000
  O3     O3        0.495054536166549    0.236123205040639    0.044303048428278  0.0000
  O2     O2        0.486140002302445    0.773512204404794    0.004137472705737  0.0000
  O2     O2        0.986298845592234    0.723164206711707    0.004049155478808  0.0000
  O2     O2        0.980699079323281    0.262447344413003    0.033914017541967  0.0000
  O1     O1        0.344915099848427    0.154755547378606    0.777907011005833  0.0000
  O2     O2        0.710595759510460    0.164661910524318    0.219282979681503  0.0000
  O2     O2        0.686673930168038    0.843651558120963    0.207832675794284  0.0000
  O2     O2        0.312999377194402    0.817951760384850    0.745602633424705  0.0000
  O2     O2        0.811221934924258    0.671883016169233    0.753282956762216  0.0000
  O2     O2        0.188541758485680    0.658290900556985    0.212407963737492  0.0000
  O2     O2        0.191550313038235    0.332152907389097    0.221979781622657  0.0000
  O3     O3        0.836489827729764    0.327284821758373    0.772035641150445  0.0000
  O3     O3        0.334541503715133    0.337005569956880    0.778847588152720  0.0000
  O3     O3        0.691328211858430    0.335523561455690    0.182397987877134  0.0000
  O2     O2        0.663106197424454    0.673944231834754    0.198880758670243  0.0000
  O2     O2        0.355092719605350    0.653016706743497    0.802851031549377  0.0000
  O2     O2        0.850075903651103    0.839289244529152    0.795856193579168  0.0000
  O2     O2        0.161158706834219    0.829443238990078    0.185972817052072  0.0000
  O2     O2        0.173832931648032    0.159120799926945    0.191142165178728  0.0000
  O2     O2        0.859888026526237    0.155752570003848    0.800721542806672  0.0000
  O3     O3        0.210588921673083    0.251004546835242    0.963108848343712  0.0000
  O2     O2        0.718058846038629    0.238034944469388    0.950458226440991  0.0000
  O2     O2        0.729529513758391    0.754125509029271    0.971125996358154  0.0000
  O2     O2        0.229549016626933    0.741566740459255    0.968908228481698  0.0000
  O3     O3        0.440221733343322    0.379920897408254    0.244271928754099  0.0000
  O3     O3        0.565605194364207    0.376474986176042    0.731072811785219  0.0000
  O2     O2        0.560318371921536    0.614149237628788    0.694828141511174  0.0000
  O2     O2        0.447762691323473    0.617291195729331    0.280614622931231  0.0000
  O2     O2        0.948669537478299    0.874424120089215    0.281798176611560  0.0000
  O2     O2        0.057998054334107    0.866684755677412    0.684533885993369  0.0000
  O3     O3        0.068756519712005    0.124051589388248    0.694835610242682  0.0000
  O2     O2        0.968619517760659    0.118545678023321    0.304686632070060  0.0000
  O2     O2        0.352906197471408    0.374489065790889    0.494077626601440  0.0000
  O1     O1        0.687470467897731    0.381419366268904    0.480371842552914  0.0000
  O2     O2        0.691800956090012    0.609206508904440    0.478665085606135  0.0000
  O2     O2        0.317013502182057    0.620464620083014    0.499144637589808  0.0000
  O2     O2        0.813702032516118    0.881927126639405    0.497469061278432  0.0000
  O2     O2        0.194076188158653    0.883995106088264    0.472849135424326  0.0000
  O3     O3        0.219090415266651    0.100862726601351    0.473624182312411  0.0000
  O2     O2        0.823198398008157    0.116905234849470    0.505166192752153  0.0000
  O2     O2        0.264345611469551    0.496984372573021    0.283973659956024  0.0000
  O3     O3        0.760461055886112    0.504786776994610    0.718309488251640  0.0000
  O2     O2        0.774488663779984    0.001592775871539    0.277417340741253  0.0000
  O3     O3        0.252027544495701    0.982830336177317    0.721278638306984  0.0000
  O2     O2        0.377504306977564    0.496351934746415    0.709083546109035  0.0000
  O3     O3        0.631749096187094    0.508200873444848    0.237798903742122  0.0000
  O2     O2        0.903484573010949    0.996840357427311    0.722371208938001  0.0000
  O2     O2        0.122897222955358    0.993929375428763    0.239851540531439  0.0000
