data_c00884.vasp
_audit_creation_method             Generated by GULP
_audit_author_name                 Salvador R. G. Balestra
_symmetry_space_group_name_H-M     'P 1             '
_symmetry_Int_Tables_number        1

loop_
_symmetry_equiv_pos_site_id
_symmetry_equiv_pos_as_xyz
_cell_length_a                       10.2919
_cell_length_b                       15.2258
_cell_length_c                        8.9286
_cell_angle_alpha                   89.5512
_cell_angle_beta                   105.1792
_cell_angle_gamma                   89.7472

loop_
_atom_site_label
_atom_site_type_symbol
_atom_site_fract_x
_atom_site_fract_y
_atom_site_fract_z
_atom_site_charge
  Ge     Ge        0.351599999999962    0.244500000000016    0.893900000000031  0.0000
  Ge     Ge        0.321795236849391    0.610645402857876    0.332730262585325  0.0000
  Ge     Ge        0.816872751282050    0.105297154221357    0.341810821317238  0.0000
  Ge     Ge        0.122169616138851    0.903059675044533    0.306913000951072  0.0000
  Si     Si        0.651942102097308    0.248769664942607    0.112105616052746  0.0000
  Si     Si        0.680731318004527    0.755141265972444    0.110224395925320  0.0000
  Si     Si        0.385294198375362    0.753686259570718    0.902978543251707  0.0000
  Si     Si        0.877286643610389    0.739776565255193    0.892422647764905  0.0000
  Si     Si        0.171455522879558    0.749995446153778    0.097499977032697  0.0000
  Si     Si        0.147967436506592    0.263762175132513    0.108089447850008  0.0000
  Si     Si        0.856312653163804    0.252093177973663    0.904502388411475  0.0000
  Si     Si        0.318017598337414    0.406034155164149    0.319251361774322  0.0000
  Si     Si        0.710620382097493    0.393304590244895    0.668993616806299  0.0000
  Si     Si        0.720182875705773    0.595965942197692    0.673717599697660  0.0000
  Si     Si        0.815068115483260    0.903033583803732    0.328148186961527  0.0000
  Si     Si        0.216599812907716    0.890444228217058    0.668656535126573  0.0000
  Si     Si        0.217608304125343    0.095129050451666    0.676692573552730  0.0000
  Si     Si        0.411765731428537    0.399657849651027    0.681403120751707  0.0000
  Si     Si        0.616822993449187    0.402408406827802    0.310730807714055  0.0000
  Si     Si        0.626720225678164    0.605846607905068    0.319766335688981  0.0000
  Si     Si        0.420715498342271    0.600116958464381    0.693863045341729  0.0000
  Si     Si        0.918950780239561    0.895802543129586    0.690210023027527  0.0000
  Si     Si        0.121191209236700    0.107114372022375    0.317944046036492  0.0000
  Si     Si        0.924462910833315    0.097797136300855    0.709768594363656  0.0000
  O3     O3        0.496915768721606    0.231562596913277    0.035496048249045  0.0000
  O2     O2        0.537814644604058    0.775651221218512    0.991367122374023  0.0000
  O2     O2        0.033857736941911    0.725169637586339    0.973594835815181  0.0000
  O2     O2        0.988831274523680    0.279867315083156    0.034222369558384  0.0000
  O3     O3        0.335433627075769    0.152037424935006    0.779122005028349  0.0000
  O3     O3        0.696161348284264    0.177417209837107    0.246950629463017  0.0000
  O2     O2        0.708675086590161    0.833426074589510    0.233777602398290  0.0000
  O2     O2        0.332748336731701    0.832202432677001    0.780440165862356  0.0000
  O2     O2        0.831802531448540    0.655686051530905    0.784399031650984  0.0000
  O3     O3        0.196608889881506    0.681183169361761    0.238403777921676  0.0000
  O2     O2        0.201746027719705    0.344944360919456    0.220496048816153  0.0000
  O2     O2        0.821456895439971    0.326607701768616    0.769666442717531  0.0000
  O3     O3        0.346160360858585    0.337714192084262    0.782216493470768  0.0000
  O2     O2        0.673658314122981    0.345276788093737    0.191161571293705  0.0000
  O2     O2        0.685629836238610    0.663119430008339    0.201494806415560  0.0000
  O2     O2        0.377485533707925    0.660700094415313    0.818095265018619  0.0000
  O2     O2        0.855636531382287    0.829505991964134    0.791619492950285  0.0000
  O3     O3        0.167957775159726    0.846757728553723    0.163582519227153  0.0000
  O2     O2        0.176805174765720    0.175481238981155    0.212511050687104  0.0000
  O2     O2        0.875926252961841    0.157674081214992    0.832472721324317  0.0000
  O3     O3        0.216294782127373    0.256731368397728    0.969484321840968  0.0000
  O2     O2        0.734421965671441    0.242062936892939    0.983590521029206  0.0000
  O2     O2        0.795479261447736    0.749175864154048    0.020270016436117  0.0000
  O2     O2        0.297167234459425    0.742472679934044    0.024076345606303  0.0000
  O2     O2        0.460641092031006    0.377889189674794    0.288868320392154  0.0000
  O2     O2        0.566745757356855    0.370851538029691    0.699504096626477  0.0000
  O2     O2        0.574129494253061    0.621318631226008    0.693626915100091  0.0000
  O3     O3        0.477440531701562    0.638740713603891    0.309341869383977  0.0000
  O3     O3        0.951198750715396    0.896285492875827    0.274845135912037  0.0000
  O2     O2        0.077901996200061    0.876329068612784    0.718106311216585  0.0000
  O2     O2        0.084218628645408    0.110064790214506    0.737007342765767  0.0000
  O3     O3        0.960533652087944    0.115107408865836    0.279511408175148  0.0000
  O2     O2        0.328352644346956    0.396344504495643    0.501756875545804  0.0000
  O2     O2        0.701704802522355    0.381406702262223    0.487043620385601  0.0000
  O2     O2        0.720350348578675    0.614411806291842    0.495501726721505  0.0000
  O3     O3        0.324464629646394    0.618245508589395    0.525857825942034  0.0000
  O2     O2        0.845687087637991    0.881019226475746    0.511117124449852  0.0000
  O3     O3        0.199687406690807    0.864221004793626    0.491772511809561  0.0000
  O2     O2        0.184505697714028    0.128313822437401    0.499128452222396  0.0000
  O3     O3        0.846460640326717    0.125182768531788    0.537311233494530  0.0000
  O3     O3        0.283619374816923    0.505408929185371    0.267096365551144  0.0000
  O2     O2        0.752787185593142    0.493471944016479    0.716727611294098  0.0000
  O3     O3        0.755563310463646    0.000231861822964    0.301025493353876  0.0000
  O2     O2        0.257988321966258    0.992611586427004    0.686772570993281  0.0000
  O2     O2        0.409029422942550    0.498933904075004    0.742534644234907  0.0000
  O2     O2        0.627296428923505    0.504426870621818    0.269256324599446  0.0000
  O2     O2        0.895222617314019    0.995292462797932    0.739537721087483  0.0000
  O3     O3        0.166284852058946    0.010388990533945    0.285229749096375  0.0000
