data_c00833.vasp
_audit_creation_method             Generated by GULP
_audit_author_name                 Salvador R. G. Balestra
_symmetry_space_group_name_H-M     'P 1             '
_symmetry_Int_Tables_number        1

loop_
_symmetry_equiv_pos_site_id
_symmetry_equiv_pos_as_xyz
_cell_length_a                       10.2167
_cell_length_b                       15.1652
_cell_length_c                        8.9857
_cell_angle_alpha                   89.2864
_cell_angle_beta                   105.0750
_cell_angle_gamma                   89.8606

loop_
_atom_site_label
_atom_site_type_symbol
_atom_site_fract_x
_atom_site_fract_y
_atom_site_fract_z
_atom_site_charge
  Ge     Ge        0.351599999999962    0.244500000000016    0.893900000000031  0.0000
  Ge     Ge        0.688640980434022    0.605634572397993    0.669289554310740  0.0000
  Ge     Ge        0.585504970265988    0.404452722430216    0.306573016548991  0.0000
  Ge     Ge        0.883009033471077    0.101965240805892    0.691606705884228  0.0000
  Si     Si        0.651708082156486    0.251439960994956    0.099280183611440  0.0000
  Si     Si        0.642427982252487    0.762658457389973    0.096138063837393  0.0000
  Si     Si        0.348535905113519    0.763439577644992    0.889280659756715  0.0000
  Si     Si        0.853501304520446    0.742765443527391    0.896701446530035  0.0000
  Si     Si        0.150659324197422    0.756717099807015    0.105436654087929  0.0000
  Si     Si        0.146336474899858    0.262342854839366    0.106953124274814  0.0000
  Si     Si        0.855106139019928    0.259660276415359    0.898727122634547  0.0000
  Si     Si        0.278506748426627    0.409736400505319    0.322555504098777  0.0000
  Si     Si        0.679064732926792    0.394128252547150    0.663993444899595  0.0000
  Si     Si        0.287213075959115    0.609101604344351    0.334612086385619  0.0000
  Si     Si        0.784746956809287    0.905388721265057    0.320829775883207  0.0000
  Si     Si        0.178257319718644    0.898557298421984    0.658716976934168  0.0000
  Si     Si        0.185188487020500    0.104200407746973    0.667069483401074  0.0000
  Si     Si        0.781025931453790    0.106543433891948    0.333238062974938  0.0000
  Si     Si        0.378964407699968    0.403924310740847    0.683119671408628  0.0000
  Si     Si        0.594325301422066    0.610941082755656    0.314938784101406  0.0000
  Si     Si        0.382908632491448    0.607942745253753    0.689886929010441  0.0000
  Si     Si        0.880847966899740    0.895017851271328    0.677956518076362  0.0000
  Si     Si        0.086715604978593    0.906908587177244    0.305603246440953  0.0000
  Si     Si        0.085570631222415    0.108778953985366    0.316328924901043  0.0000
  O3     O3        0.522659868906946    0.227488653992575    0.964896133968538  0.0000
  O2     O2        0.505164972926442    0.784010204057422    0.966809612764094  0.0000
  O2     O2        0.010398548967734    0.736307435752687    0.984790053677858  0.0000
  O2     O2        0.014843415059697    0.278987865142532    0.965210972589783  0.0000
  O3     O3        0.306997372547427    0.156351030247000    0.773092344940909  0.0000
  O2     O2        0.673946861952099    0.174364151564539    0.229565135447093  0.0000
  O2     O2        0.672568569497875    0.842284090441875    0.217392016239027  0.0000
  O2     O2        0.298720725882140    0.839890277691229    0.761884659843411  0.0000
  O3     O3        0.819513255011172    0.655818494866469    0.797465812886330  0.0000
  O2     O2        0.183232353569190    0.678585848162440    0.232149780041885  0.0000
  O2     O2        0.164893078836475    0.344542948117164    0.223752457818732  0.0000
  O2     O2        0.796710400839358    0.335247652293224    0.772306664277976  0.0000
  O3     O3        0.315329245355317    0.342154492027010    0.788518217129686  0.0000
  O3     O3        0.632434779841988    0.345213096621377    0.169150191617945  0.0000
  O2     O2        0.627282464134739    0.671974341499159    0.183360455528006  0.0000
  O2     O2        0.326644820558811    0.668806710435021    0.805649732556466  0.0000
  O2     O2        0.820650383532174    0.826984666521166    0.780542511232415  0.0000
  O2     O2        0.143220265343104    0.849232284726545    0.188168703477310  0.0000
  O2     O2        0.129180862873592    0.172594702127065    0.196445340461162  0.0000
  O3     O3        0.828235466075643    0.165167830609049    0.820096400134248  0.0000
  O3     O3        0.276164547469556    0.248644925122123    0.042935424762790  0.0000
  O2     O2        0.785493949148579    0.260014117395313    0.038468309928357  0.0000
  O2     O2        0.764835999053967    0.751212647056466    0.018353420454456  0.0000
  O2     O2        0.268970762881496    0.764354099476537    0.020244975146837  0.0000
  O3     O3        0.411928061195992    0.397606163145961    0.264759767412512  0.0000
  O2     O2        0.539518834245802    0.383181575425789    0.716152139289332  0.0000
  O3     O3        0.540906537192480    0.627325135901598    0.720223772446886  0.0000
  O2     O2        0.433591579780651    0.612275250660976    0.301220438989577  0.0000
  O2     O2        0.930018442401300    0.884148187276049    0.290115310405101  0.0000
  O2     O2        0.036192319774178    0.868022405679115    0.688155588452063  0.0000
  O3     O3        0.045661922138178    0.135813498312619    0.699971551223467  0.0000
  O2     O2        0.932329974040258    0.127649416383203    0.320884184981197  0.0000
  O2     O2        0.308364989160444    0.386193490642844    0.503714642521500  0.0000
  O3     O3        0.656486215385251    0.363395511326535    0.489553578555211  0.0000
  O3     O3        0.673489845245415    0.642920007662248    0.482949356100478  0.0000
  O2     O2        0.303256630343705    0.630719591127749    0.513560205255470  0.0000
  O2     O2        0.792489993571174    0.889840547096779    0.500761931830231  0.0000
  O2     O2        0.174467111128625    0.886799661250236    0.479588352170945  0.0000
  O2     O2        0.181388740722504    0.121914500275394    0.487708005278070  0.0000
  O3     O3        0.778128382327231    0.116374308055929    0.508369373563766  0.0000
  O2     O2        0.226297090018621    0.511136631091670    0.296293458881686  0.0000
  O3     O3        0.723374529773810    0.494908856899008    0.675022144567784  0.0000
  O2     O2        0.742189996246528    0.006715926285493    0.276381840373844  0.0000
  O2     O2        0.202872175309896    0.000017290507426    0.704960045589458  0.0000
  O2     O2        0.359192945861039    0.505497902245162    0.724856148574419  0.0000
  O3     O3        0.636473875459490    0.511623173884501    0.291287283469696  0.0000
  O3     O3        0.875917060644904    0.992238370140031    0.741504543044482  0.0000
  O2     O2        0.100608420147080    0.009093454017593    0.261552118277231  0.0000
