data_c00880.vasp
_audit_creation_method             Generated by GULP
_audit_author_name                 Salvador R. G. Balestra
_symmetry_space_group_name_H-M     'P 1             '
_symmetry_Int_Tables_number        1

loop_
_symmetry_equiv_pos_site_id
_symmetry_equiv_pos_as_xyz
_cell_length_a                       10.2524
_cell_length_b                       15.2059
_cell_length_c                        8.9309
_cell_angle_alpha                   89.2972
_cell_angle_beta                   105.2183
_cell_angle_gamma                   89.5126

loop_
_atom_site_label
_atom_site_type_symbol
_atom_site_fract_x
_atom_site_fract_y
_atom_site_fract_z
_atom_site_charge
  Ge     Ge        0.351599999999962    0.244500000000016    0.893900000000031  0.0000
  Ge     Ge        0.281224363447838    0.615621618753495    0.338565053224702  0.0000
  Ge     Ge        0.785184213400814    0.118085125919538    0.339570435315476  0.0000
  Ge     Ge        0.588870183277576    0.410489659235505    0.310549112150796  0.0000
  Si     Si        0.650552321671397    0.261738974274960    0.102481885707980  0.0000
  Si     Si        0.635064348531365    0.769037704695622    0.108019898135749  0.0000
  Si     Si        0.338993672641035    0.758717286352864    0.901562867287387  0.0000
  Si     Si        0.832709485078448    0.750785294280508    0.890647840524816  0.0000
  Si     Si        0.127657001390212    0.756703419664114    0.103467121207849  0.0000
  Si     Si        0.152224969288234    0.262928448049295    0.114392867980027  0.0000
  Si     Si        0.858789451707120    0.261098872941712    0.905986311164777  0.0000
  Si     Si        0.285917093038237    0.410487272296387    0.322830595275918  0.0000
  Si     Si        0.684650730861195    0.400937121457221    0.673290460345389  0.0000
  Si     Si        0.680483402936952    0.604624786394279    0.676920736300004  0.0000
  Si     Si        0.777514552082494    0.914848777246166    0.321806413613769  0.0000
  Si     Si        0.172999522313200    0.894943304893058    0.662194881135728  0.0000
  Si     Si        0.187134351261199    0.098246732588563    0.676905133961196  0.0000
  Si     Si        0.381555646382882    0.404221025266172    0.683703572018509  0.0000
  Si     Si        0.584913474042157    0.619012681256405    0.322469888813978  0.0000
  Si     Si        0.381164727386033    0.603718496179811    0.700737907680697  0.0000
  Si     Si        0.875070069700906    0.904100126471738    0.681971618665451  0.0000
  Si     Si        0.078653323842310    0.908666077522871    0.307127592565427  0.0000
  Si     Si        0.091995403121358    0.111836958161361    0.322620806457314  0.0000
  Si     Si        0.888085651153340    0.104623428812569    0.702142308755931  0.0000
  O3     O3        0.523760485643156    0.236996586176271    0.965186536415779  0.0000
  O2     O2        0.489442962694471    0.785699603726240    0.990705531538723  0.0000
  O2     O2        0.989121215228564    0.738295637845771    0.977106311035587  0.0000
  O2     O2        0.016367394527954    0.280445753210387    0.978148028641693  0.0000
  O3     O3        0.304403742649592    0.150532288171541    0.789541723261446  0.0000
  O3     O3        0.666262988738902    0.193598935193143    0.245364889121746  0.0000
  O2     O2        0.664764619242093    0.851004121126470    0.223525073590100  0.0000
  O2     O2        0.285527297513729    0.829718734688544    0.763967130435144  0.0000
  O2     O2        0.791290427300566    0.664723824711060    0.787472860138814  0.0000
  O3     O3        0.152339613246371    0.682619946397331    0.235873138822520  0.0000
  O2     O2        0.170140288307235    0.344885766506291    0.231373963662707  0.0000
  O2     O2        0.797641357350559    0.338894082171222    0.783714341281755  0.0000
  O3     O3        0.314002274782147    0.337197891890445    0.776208390243567  0.0000
  O3     O3        0.641486355356068    0.358565089754007    0.167085190939694  0.0000
  O2     O2        0.644522791822172    0.680516471441237    0.209883870289829  0.0000
  O2     O2        0.337872668004768    0.662324188848824    0.828375039536611  0.0000
  O2     O2        0.809532462187981    0.838116205287774    0.782009314032835  0.0000
  O2     O2        0.126756589956567    0.852001789204268    0.181262616981015  0.0000
  O2     O2        0.149599856872703    0.171860927839520    0.207044230082238  0.0000
  O2     O2        0.842741126590959    0.166605577798254    0.823748825486519  0.0000
  O3     O3        0.278504803070430    0.255566943154990    0.043388201582234  0.0000
  O2     O2        0.785321591072347    0.254790758823883    0.042620495603000  0.0000
  O2     O2        0.746503377315656    0.761355430172904    0.013578937886124  0.0000
  O2     O2        0.249459646212485    0.754890223559987    0.022543399640970  0.0000
  O3     O3        0.426639033692642    0.377222073202468    0.296904073443103  0.0000
  O2     O2        0.536879526954745    0.376293629418335    0.693551773852716  0.0000
  O2     O2        0.532742865447090    0.628655527780168    0.696031454379576  0.0000
  O3     O3        0.434808636906360    0.650733455087854    0.317393962828698  0.0000
  O2     O2        0.922019853189243    0.890414537089808    0.292689954410631  0.0000
  O2     O2        0.028613354525363    0.873741441889511    0.693374652916234  0.0000
  O2     O2        0.042911714261560    0.125598105461845    0.704895657822728  0.0000
  O3     O3        0.941057177942384    0.141586222905612    0.312554577020767  0.0000
  O2     O2        0.294842111505956    0.407076370545298    0.505764086556621  0.0000
  O3     O3        0.687654948174128    0.388437526721541    0.496584164371364  0.0000
  O2     O2        0.680413402280830    0.622608039536356    0.498720559017702  0.0000
  O3     O3        0.281828852539877    0.619210172076682    0.531985116871721  0.0000
  O2     O2        0.786768073470983    0.903563740552716    0.504462576039817  0.0000
  O2     O2        0.165836910605776    0.881984703864687    0.480929306734882  0.0000
  O2     O2        0.183641393253861    0.121281573361538    0.498849692461660  0.0000
  O3     O3        0.791807540391267    0.123834820739908    0.533678088742622  0.0000
  O3     O3        0.253362660543884    0.510263255184859    0.267264752090017  0.0000
  O2     O2        0.716777801258419    0.502473267158606    0.720104835101901  0.0000
  O3     O3        0.737512548979939    0.014222730194521    0.271965647741201  0.0000
  O2     O2        0.213891187165743    0.994464423653472    0.709638874092518  0.0000
  O2     O2        0.378513126723947    0.501759616571389    0.753210247435956  0.0000
  O3     O3        0.586142927691740    0.520437477028667    0.264966835363434  0.0000
  O2     O2        0.874488631136150    0.002416738841654    0.748713085360416  0.0000
  O2     O2        0.098173220691139    0.010774664112559    0.271097798189899  0.0000
