data_c00830.vasp
_audit_creation_method             Generated by GULP
_audit_author_name                 Salvador R. G. Balestra
_symmetry_space_group_name_H-M     'P 1             '
_symmetry_Int_Tables_number        1

loop_
_symmetry_equiv_pos_site_id
_symmetry_equiv_pos_as_xyz
_cell_length_a                       10.2357
_cell_length_b                       15.2349
_cell_length_c                        8.9426
_cell_angle_alpha                   90.4313
_cell_angle_beta                   105.1686
_cell_angle_gamma                   90.1065

loop_
_atom_site_label
_atom_site_type_symbol
_atom_site_fract_x
_atom_site_fract_y
_atom_site_fract_z
_atom_site_charge
  Ge     Ge        0.351599999999962    0.244500000000016    0.893900000000031  0.0000
  Ge     Ge        0.718869862082247    0.600441750264120    0.662080141198824  0.0000
  Ge     Ge        0.619784149645266    0.387094665809301    0.312407326295006  0.0000
  Ge     Ge        0.918862017118860    0.894205535796589    0.691053074726674  0.0000
  Si     Si        0.652853127876410    0.228726549064454    0.104621482297119  0.0000
  Si     Si        0.677048506979460    0.744265407138980    0.095972503557202  0.0000
  Si     Si        0.383153351614268    0.755852748610057    0.888307329396414  0.0000
  Si     Si        0.885920511621105    0.738360879874065    0.895144651009288  0.0000
  Si     Si        0.183977434314917    0.739265602342473    0.102742180849934  0.0000
  Si     Si        0.143047740781371    0.251106951536242    0.105568252202314  0.0000
  Si     Si        0.850051961319847    0.248293985657331    0.895108798938981  0.0000
  Si     Si        0.313246614358484    0.389810840490980    0.330496311177188  0.0000
  Si     Si        0.714622666063638    0.396524986372545    0.678901801733000  0.0000
  Si     Si        0.319607712062668    0.592326660568907    0.325544461552063  0.0000
  Si     Si        0.823931466193478    0.886684361549140    0.329904475463552  0.0000
  Si     Si        0.222801044457595    0.895379706084981    0.669075401653416  0.0000
  Si     Si        0.217430458399404    0.098253859280306    0.660061864708429  0.0000
  Si     Si        0.819424016249292    0.089228125886817    0.323358634326400  0.0000
  Si     Si        0.412580497303184    0.399221671392557    0.686953493994971  0.0000
  Si     Si        0.620702874729219    0.589916957214802    0.300452877970405  0.0000
  Si     Si        0.413480476944223    0.603181852838752    0.676960309952346  0.0000
  Si     Si        0.127059185130261    0.891244220903762    0.312956657092661  0.0000
  Si     Si        0.118956044980989    0.091714656198665    0.302549793659380  0.0000
  Si     Si        0.918704760228969    0.101139073243940    0.680375554654162  0.0000
  O3     O3        0.492673734802498    0.221478377418326    0.039199721335742  0.0000
  O2     O2        0.540547355196785    0.769942771054570    0.970708931475025  0.0000
  O2     O2        0.042035801214513    0.722719969249159    0.980833993547329  0.0000
  O2     O2        0.983030579066561    0.264525958840688    0.033975508045337  0.0000
  O3     O3        0.331394961993792    0.162233905836065    0.755594522977272  0.0000
  O2     O2        0.701302951651226    0.146256189596788    0.216803842976754  0.0000
  O2     O2        0.715402325193984    0.823837327314831    0.218074541179243  0.0000
  O2     O2        0.342913683939774    0.837740438691137    0.773280877415191  0.0000
  O3     O3        0.847000322711649    0.669165042459695    0.755790742936274  0.0000
  O2     O2        0.212800385215836    0.655122196882877    0.213738196763374  0.0000
  O2     O2        0.193464875219971    0.328513311042244    0.231334714383943  0.0000
  O2     O2        0.824262497729008    0.333508297353591    0.787303197697954  0.0000
  O3     O3        0.360912552906045    0.345478498488343    0.810755741533604  0.0000
  O3     O3        0.689276368662326    0.317473803083088    0.203858017405216  0.0000
  O2     O2        0.659651584616175    0.654649091511904    0.179829423080623  0.0000
  O2     O2        0.355344434449268    0.664769938414956    0.791392016741900  0.0000
  O3     O3        0.863879183844792    0.835422086887975    0.825393641972333  0.0000
  O2     O2        0.182042465467116    0.827545619187045    0.201515938872330  0.0000
  O2     O2        0.171400514346857    0.156493582408807    0.190068130746890  0.0000
  O2     O2        0.862294943779664    0.164673019877444    0.790478467155210  0.0000
  O3     O3        0.214286705649720    0.252868549226648    0.968561976024399  0.0000
  O2     O2        0.722813892040187    0.229537735710596    0.963699733520090  0.0000
  O2     O2        0.794071950929118    0.724426856931788    0.012604012832753  0.0000
  O2     O2        0.300644879941686    0.752904508851225    0.016821606260824  0.0000
  O3     O3        0.452437097678382    0.359792067266746    0.296518630067838  0.0000
  O2     O2        0.564905416123056    0.370279896516564    0.692405823866811  0.0000
  O3     O3        0.564700789049405    0.634153152828496    0.685602295070236  0.0000
  O2     O2        0.470065539979396    0.612011545329345    0.313481255067629  0.0000
  O2     O2        0.972490415090918    0.867902208172652    0.306675990525976  0.0000
  O3     O3        0.084027380530825    0.865750409454141    0.702639281576737  0.0000
  O2     O2        0.074719854945780    0.124911624703779    0.693059653373879  0.0000
  O2     O2        0.961654090727542    0.111664729533225    0.287213717834086  0.0000
  O2     O2        0.320518486175167    0.380977898882990    0.512527148795546  0.0000
  O3     O3        0.715819631556388    0.385285279767726    0.501291232863332  0.0000
  O3     O3        0.720463149273701    0.601085888072990    0.469823782170264  0.0000
  O2     O2        0.317135008260633    0.611570804062981    0.502594814923447  0.0000
  O3     O3        0.823192681563937    0.870178405341580    0.505308128805022  0.0000
  O2     O2        0.217573146017774    0.880860728138363    0.488357396998180  0.0000
  O2     O2        0.206543612206061    0.107850174434073    0.478036887137353  0.0000
  O2     O2        0.829827012656823    0.110489319357926    0.503000531249426  0.0000
  O2     O2        0.281469970859442    0.491051597987858    0.280224729356850  0.0000
  O3     O3        0.749994812161727    0.495512752423379    0.733155641114386  0.0000
  O2     O2        0.782986383588469    0.987336797820719    0.287539999681253  0.0000
  O2     O2        0.250858643860166    0.997915317205216    0.711984758472132  0.0000
  O2     O2        0.411792258828493    0.502329971257850    0.729568701170424  0.0000
  O3     O3        0.625487955527364    0.491487348787597    0.240484801196871  0.0000
  O3     O3        0.906472131183560    0.002981707990733    0.735306686429718  0.0000
  O2     O2        0.136883453987696    0.990836482054333    0.254569207787014  0.0000
