data_c00898.vasp
_audit_creation_method             Generated by GULP
_audit_author_name                 Salvador R. G. Balestra
_symmetry_space_group_name_H-M     'P 1             '
_symmetry_Int_Tables_number        1

loop_
_symmetry_equiv_pos_site_id
_symmetry_equiv_pos_as_xyz
_cell_length_a                       10.2401
_cell_length_b                       15.2198
_cell_length_c                        8.9519
_cell_angle_alpha                   90.2620
_cell_angle_beta                   105.1189
_cell_angle_gamma                   89.9144

loop_
_atom_site_label
_atom_site_type_symbol
_atom_site_fract_x
_atom_site_fract_y
_atom_site_fract_z
_atom_site_charge
  Ge     Ge        0.351599999999962    0.244500000000016    0.893900000000031  0.0000
  Ge     Ge        0.307110906664202    0.600642597462939    0.323870344488244  0.0000
  Ge     Ge        0.619333329394349    0.398115652373131    0.308267359728970  0.0000
  Ge     Ge        0.121388404579266    0.097454416846342    0.304057078298489  0.0000
  Si     Si        0.651836933563318    0.240821160177574    0.103312501202457  0.0000
  Si     Si        0.646075970057340    0.760909295709482    0.101125371650835  0.0000
  Si     Si        0.351593410167427    0.752094194159538    0.894943947940479  0.0000
  Si     Si        0.842788971373446    0.749956236167084    0.882462935428078  0.0000
  Si     Si        0.139542081730560    0.737470769656927    0.095274792649872  0.0000
  Si     Si        0.143399301695265    0.256753679058527    0.098983138880616  0.0000
  Si     Si        0.849780862826374    0.253868559248340    0.893902728627378  0.0000
  Si     Si        0.315982656832745    0.392013877623052    0.325748916575734  0.0000
  Si     Si        0.716258589972315    0.401667144392389    0.670227994502732  0.0000
  Si     Si        0.706514503813664    0.602416378994383    0.659635586624793  0.0000
  Si     Si        0.811640589146996    0.899939641287681    0.324890497005021  0.0000
  Si     Si        0.203698957982009    0.892859131238220    0.665562322686840  0.0000
  Si     Si        0.217979446399155    0.094892101927664    0.666848024422464  0.0000
  Si     Si        0.817384785652277    0.103224830765166    0.327379145841930  0.0000
  Si     Si        0.412544243319840    0.399598724299797    0.681297194240954  0.0000
  Si     Si        0.609735720148222    0.605225692288911    0.303399354496103  0.0000
  Si     Si        0.406072844834285    0.601793804886069    0.682485882909879  0.0000
  Si     Si        0.903997252958873    0.900805190728446    0.681068422408768  0.0000
  Si     Si        0.111576266750450    0.891869616482048    0.307338546694193  0.0000
  Si     Si        0.915498897317836    0.103204298747504    0.682235211135148  0.0000
  O3     O3        0.492752533368920    0.227325138120139    0.041479165762125  0.0000
  O2     O2        0.489388296840615    0.778001816274719    0.018864612855851  0.0000
  O2     O2        0.984737113462084    0.730778179002908    0.001375193390651  0.0000
  O2     O2        0.982217870443957    0.270359937716291    0.032924696117282  0.0000
  O3     O3        0.331848896898788    0.154158629793395    0.774168316632939  0.0000
  O2     O2        0.699532548517905    0.163655886914918    0.227737432444010  0.0000
  O2     O2        0.693384999182829    0.841396174433502    0.219635261202165  0.0000
  O2     O2        0.315374901173349    0.828328779469488    0.766697247527135  0.0000
  O2     O2        0.813793761601797    0.670576215484092    0.758983798504673  0.0000
  O3     O3        0.172770383907633    0.654907143799558    0.206696742061189  0.0000
  O2     O2        0.195478517355943    0.330162762198609    0.231228071719526  0.0000
  O2     O2        0.824344988246865    0.338816598242903    0.783127925293585  0.0000
  O3     O3        0.364165304696876    0.340821913157514    0.799881260969137  0.0000
  O3     O3        0.685037127567680    0.334674294775593    0.186633821422430  0.0000
  O2     O2        0.669595397721192    0.669787561906348    0.195477705475460  0.0000
  O2     O2        0.366547051549261    0.659884971954022    0.813264988315532  0.0000
  O2     O2        0.843857769975573    0.842057256639045    0.794855806161595  0.0000
  O2     O2        0.167720513093862    0.825123216657894    0.200709909862103  0.0000
  O3     O3        0.177557781015380    0.161718186719152    0.177357010979836  0.0000
  O2     O2        0.866480296163598    0.166680944657675    0.798706936293319  0.0000
  O3     O3        0.211591412424563    0.263976069861611    0.959935291419291  0.0000
  O2     O2        0.722375720792704    0.235998136981138    0.962562038242150  0.0000
  O2     O2        0.727154108486826    0.756629066099321    0.971410780269688  0.0000
  O2     O2        0.233756829897190    0.739893761286059    0.978813052946277  0.0000
  O3     O3        0.457157730575728    0.361553551979529    0.296614529462161  0.0000
  O2     O2        0.566900928664010    0.377235381646053    0.683844058352289  0.0000
  O2     O2        0.557699468182255    0.625240570977616    0.675793974478776  0.0000
  O3     O3        0.458602391250682    0.636268327774396    0.295822468468947  0.0000
  O2     O2        0.953742450268573    0.872607161519733    0.293054403761631  0.0000
  O2     O2        0.058805063215733    0.873004557047911    0.697127762749997  0.0000
  O2     O2        0.071643621693590    0.122314664065771    0.690572223336526  0.0000
  O3     O3        0.957440997397565    0.128415425702442    0.293345400779674  0.0000
  O2     O2        0.320771526587930    0.384201087212108    0.507249949797050  0.0000
  O3     O3        0.720610990699126    0.388543640696335    0.494713500675546  0.0000
  O2     O2        0.704227978285008    0.609851070202699    0.479605001454633  0.0000
  O3     O3        0.306552870825590    0.617133500246526    0.514977957270135  0.0000
  O2     O2        0.817006329997714    0.885666313650529    0.504882132166205  0.0000
  O2     O2        0.196257436866507    0.878711314628378    0.485247335839601  0.0000
  O3     O3        0.218842659418709    0.110170831144956    0.490921671379969  0.0000
  O2     O2        0.825547466231348    0.119204020356932    0.508273145470133  0.0000
  O3     O3        0.287588675814753    0.491574760666300    0.273507466169055  0.0000
  O2     O2        0.749736149588064    0.503650105579715    0.718515361353224  0.0000
  O2     O2        0.782125714632288    0.001710684031160    0.282259886226265  0.0000
  O2     O2        0.246658990089619    0.992824375377621    0.711961543524372  0.0000
  O2     O2        0.399721472997663    0.500482702105436    0.730680636410970  0.0000
  O3     O3        0.611669490650764    0.505704717177355    0.246521790615242  0.0000
  O2     O2        0.897325528220497    0.002551478599788    0.730245171239898  0.0000
  O3     O3        0.129550011164060    0.989027168674559    0.251245583826499  0.0000
