data_c00879.vasp
_audit_creation_method             Generated by GULP
_audit_author_name                 Salvador R. G. Balestra
_symmetry_space_group_name_H-M     'P 1             '
_symmetry_Int_Tables_number        1

loop_
_symmetry_equiv_pos_site_id
_symmetry_equiv_pos_as_xyz
_cell_length_a                       10.1949
_cell_length_b                       15.2694
_cell_length_c                        8.9197
_cell_angle_alpha                   89.7987
_cell_angle_beta                   105.3409
_cell_angle_gamma                   89.2420

loop_
_atom_site_label
_atom_site_type_symbol
_atom_site_fract_x
_atom_site_fract_y
_atom_site_fract_z
_atom_site_charge
  Ge     Ge        0.351599999999962    0.244500000000016    0.893900000000031  0.0000
  Ge     Ge        0.284448669439122    0.615236615510936    0.329569520762017  0.0000
  Ge     Ge        0.778834940689516    0.114613054038747    0.333085573234880  0.0000
  Ge     Ge        0.381160476179812    0.405513718419056    0.683489522834284  0.0000
  Si     Si        0.652560479520646    0.264288778678293    0.099954365367086  0.0000
  Si     Si        0.643817555785148    0.764010962027608    0.106001507325854  0.0000
  Si     Si        0.345838054143266    0.763308779965085    0.897816942746956  0.0000
  Si     Si        0.840512721792093    0.750821610842909    0.887386131410293  0.0000
  Si     Si        0.135242694299205    0.759435261825784    0.099756816405703  0.0000
  Si     Si        0.154060823270888    0.261126022347168    0.111721025187195  0.0000
  Si     Si        0.859994482738057    0.265144161480308    0.898689810896262  0.0000
  Si     Si        0.284698628792711    0.413796908428404    0.316152330170717  0.0000
  Si     Si        0.688099950152906    0.402196262789900    0.666419503399291  0.0000
  Si     Si        0.684548290018305    0.606155256397226    0.670582049324716  0.0000
  Si     Si        0.776687302525905    0.912606447315137    0.322262160147375  0.0000
  Si     Si        0.175146714450350    0.898000532399233    0.661386973790030  0.0000
  Si     Si        0.184707990333683    0.101140019131698    0.675178604697813  0.0000
  Si     Si        0.589469664340319    0.411447042987739    0.310156426619548  0.0000
  Si     Si        0.591530850780216    0.614800743266795    0.316601378752187  0.0000
  Si     Si        0.383895728884344    0.606722422460790    0.695930620898257  0.0000
  Si     Si        0.876041705271956    0.905744440023022    0.683074807390326  0.0000
  Si     Si        0.081383593703193    0.909949836959850    0.306463383336215  0.0000
  Si     Si        0.089488926472510    0.112020092264349    0.320266110529639  0.0000
  Si     Si        0.883741576895501    0.106386805322617    0.699027934032697  0.0000
  O3     O3        0.526370975090495    0.247207975848761    0.955733705789710  0.0000
  O2     O2        0.500919517414462    0.783897689202668    0.983298530207209  0.0000
  O2     O2        0.999680007084132    0.739324589424737    0.967191536866566  0.0000
  O2     O2        0.020411089069881    0.278389685542064    0.970917584803372  0.0000
  O3     O3        0.306429829574968    0.150659964835535    0.787231339212491  0.0000
  O3     O3        0.663095127746341    0.188540263790450    0.227286322693027  0.0000
  O2     O2        0.670592179936957    0.842999947844176    0.228599479665250  0.0000
  O2     O2        0.292589357399677    0.837661681627949    0.767469578406044  0.0000
  O2     O2        0.797119628043067    0.665727872667896    0.781538560859796  0.0000
  O3     O3        0.158696123281472    0.685941726446168    0.231505781433932  0.0000
  O2     O2        0.174860398350694    0.346106160951751    0.221174696724397  0.0000
  O2     O2        0.808561861652701    0.341322537615185    0.770185130840705  0.0000
  O1     O1        0.303997682900329    0.335224224502238    0.778879556254626  0.0000
  O2     O2        0.639556965079127    0.357019565011982    0.182202761523325  0.0000
  O2     O2        0.648588415537561    0.672643647658548    0.197790834134086  0.0000
  O2     O2        0.334412240653989    0.670040576319447    0.813686466575602  0.0000
  O2     O2        0.812394678812237    0.839610707436878    0.783922479377551  0.0000
  O2     O2        0.127685506280768    0.853814215886721    0.178132286491302  0.0000
  O2     O2        0.145733797227144    0.173290557564889    0.207268495054725  0.0000
  O2     O2        0.835547005677288    0.169486889558504    0.819029923707856  0.0000
  O3     O3        0.284922707579922    0.246980097077306    0.049812827656601  0.0000
  O2     O2        0.786433280449784    0.268409013039520    0.036655398314731  0.0000
  O2     O2        0.760805755326969    0.758559817707398    0.018046605540653  0.0000
  O2     O2        0.261614722773059    0.760055228119621    0.025009472487842  0.0000
  O2     O2        0.435401973182515    0.386404929994824    0.302594784817670  0.0000
  O3     O3        0.547055920332928    0.372912286028317    0.695015146205108  0.0000
  O2     O2        0.536481957980353    0.631409108011950    0.689715952579626  0.0000
  O3     O3        0.440098519193399    0.646446914633519    0.307153661076811  0.0000
  O2     O2        0.923056482857722    0.895451284119138    0.290687956298325  0.0000
  O2     O2        0.031474635540133    0.876769314636344    0.695931081706763  0.0000
  O2     O2        0.040449123422431    0.127463128354591    0.707099349055589  0.0000
  O3     O3        0.934045528928845    0.135986035172550    0.301401663595643  0.0000
  O3     O3        0.284413684416415    0.410755980201648    0.494218454512228  0.0000
  O2     O2        0.683248619753277    0.390823532030457    0.484041257978157  0.0000
  O2     O2        0.686042065500340    0.624498516356859    0.492665370322787  0.0000
  O3     O3        0.286434366061049    0.615348549001614    0.523354221072014  0.0000
  O2     O2        0.788063680238920    0.902086163910584    0.505277843045125  0.0000
  O2     O2        0.166909033263988    0.881116457311324    0.480250359909003  0.0000
  O2     O2        0.176925459978992    0.126781661790531    0.497326682130303  0.0000
  O3     O3        0.789127049756913    0.124180634410443    0.528119045225764  0.0000
  O3     O3        0.248727052114017    0.511592734498427    0.253450843825592  0.0000
  O2     O2        0.716985326132851    0.503869555552013    0.713134941401593  0.0000
  O3     O3        0.727123145399807    0.010286248048267    0.272134913902953  0.0000
  O2     O2        0.212673435913244    0.997994947969180    0.702625990608768  0.0000
  O3     O3        0.383538039327486    0.509334575914547    0.760286125359487  0.0000
  O2     O2        0.595156942689482    0.513486980380486    0.267257591242763  0.0000
  O2     O2        0.870739845762341    0.004712790448602    0.746036795658019  0.0000
  O2     O2        0.106532642938247    0.011127103858888    0.274189041767119  0.0000
