data_c00803.vasp
_audit_creation_method             Generated by GULP
_audit_author_name                 Salvador R. G. Balestra
_symmetry_space_group_name_H-M     'P 1             '
_symmetry_Int_Tables_number        1

loop_
_symmetry_equiv_pos_site_id
_symmetry_equiv_pos_as_xyz
_cell_length_a                       10.2927
_cell_length_b                       15.1847
_cell_length_c                        8.9508
_cell_angle_alpha                   89.7715
_cell_angle_beta                   105.0216
_cell_angle_gamma                   89.8895

loop_
_atom_site_label
_atom_site_type_symbol
_atom_site_fract_x
_atom_site_fract_y
_atom_site_fract_z
_atom_site_charge
  Ge     Ge        0.351599999999962    0.244500000000016    0.893900000000031  0.0000
  Ge     Ge        0.699128469386984    0.594200685113635    0.673453541960375  0.0000
  Ge     Ge        0.196537036469149    0.895571754937480    0.664731567218697  0.0000
  Ge     Ge        0.891151878006024    0.097264914631882    0.692359032481493  0.0000
  Si     Si        0.650446621756452    0.241099625138335    0.107038803913681  0.0000
  Si     Si        0.644703740825694    0.749372567856780    0.104755202859085  0.0000
  Si     Si        0.350532337089941    0.755441823180759    0.894046966967313  0.0000
  Si     Si        0.849891148223751    0.737318501063490    0.896372195479696  0.0000
  Si     Si        0.144787968882060    0.748372392939055    0.101344127659685  0.0000
  Si     Si        0.143175883908675    0.258892908769806    0.105866806131707  0.0000
  Si     Si        0.851694133869626    0.251827571840204    0.901235645775061  0.0000
  Si     Si        0.287858620981942    0.403020395101141    0.326669284004343  0.0000
  Si     Si        0.680578344691783    0.387627826762773    0.670646930907496  0.0000
  Si     Si        0.302396431589218    0.605293079090234    0.331558024284224  0.0000
  Si     Si        0.799847110825995    0.893682674363069    0.329321876917843  0.0000
  Si     Si        0.188554353471929    0.103386719190870    0.666413353981220  0.0000
  Si     Si        0.785912090680685    0.095128469943055    0.333567011490755  0.0000
  Si     Si        0.383437789793085    0.399939882908908    0.683324153111524  0.0000
  Si     Si        0.587126018387467    0.394338432119591    0.311757441655299  0.0000
  Si     Si        0.603599842077327    0.595197145822721    0.312158540184506  0.0000
  Si     Si        0.396074089048109    0.605107127069149    0.684842853734516  0.0000
  Si     Si        0.898078766109233    0.888003617577146    0.684832073994477  0.0000
  Si     Si        0.098458445696329    0.902432823049377    0.303494192778217  0.0000
  Si     Si        0.085767033007164    0.102065272572753    0.311649051273353  0.0000
  O3     O3        0.519118662490751    0.223499069554194    0.973862733395215  0.0000
  O2     O2        0.491537084244827    0.770026571513324    0.017548081443855  0.0000
  O2     O2        0.992460403968904    0.724740752672990    0.018049495661774  0.0000
  O2     O2        0.007637556246099    0.277420198290445    0.972461458249106  0.0000
  O3     O3        0.308338135660205    0.163318656360130    0.757595481898151  0.0000
  O2     O2        0.676338330229449    0.157688722590822    0.222990105327851  0.0000
  O2     O2        0.693136327838212    0.827526343920710    0.226524819848269  0.0000
  O3     O3        0.328381625509318    0.833469232766568    0.770272193998592  0.0000
  O3     O3        0.828505908077292    0.654593949216383    0.783829326173844  0.0000
  O2     O2        0.197898595188643    0.672006779621585    0.226436841053130  0.0000
  O2     O2        0.172362683301242    0.342523964582516    0.221297863286244  0.0000
  O2     O2        0.792000804606615    0.319466651683030    0.761346700429377  0.0000
  O3     O3        0.322644797890487    0.345673995302052    0.800140672698405  0.0000
  O2     O2        0.636794018886619    0.329585411622683    0.199259299835419  0.0000
  O2     O2        0.654704557689857    0.655989523072331    0.192642260667200  0.0000
  O2     O2        0.340961685826227    0.662149244173573    0.805821575878605  0.0000
  O2     O2        0.837790900461467    0.826838844825890    0.796884020384157  0.0000
  O2     O2        0.150174873466887    0.842767804497009    0.183366602626612  0.0000
  O2     O2        0.128187761767711    0.170568601676485    0.198595013844296  0.0000
  O3     O3        0.836256351475335    0.155093623025151    0.828902882518202  0.0000
  O3     O3        0.266644379088544    0.242011340908585    0.034021438130713  0.0000
  O2     O2        0.776558287174669    0.256992778076842    0.036190832346476  0.0000
  O2     O2        0.732783429374959    0.741702979954447    0.983580428503843  0.0000
  O2     O2        0.231404428828331    0.756576375560115    0.978487343937507  0.0000
  O2     O2        0.429589261269198    0.377351322760964    0.293441958291986  0.0000
  O2     O2        0.535719621748063    0.365180540690132    0.700239827371687  0.0000
  O3     O3        0.548324204055787    0.631762966150480    0.699008209109287  0.0000
  O2     O2        0.450848882164453    0.620778506590553    0.310229365830428  0.0000
  O2     O2        0.947175356665781    0.875212375807727    0.305594133806136  0.0000
  O3     O3        0.046862692469688    0.855524004075285    0.689526302785684  0.0000
  O3     O3        0.048878122111395    0.136805832513255    0.695435469567154  0.0000
  O2     O2        0.934271843851260    0.120369534916823    0.319599076316812  0.0000
  O2     O2        0.295798075160791    0.386401414174635    0.506781872552090  0.0000
  O2     O2        0.671136805343582    0.379259755400793    0.488278009569472  0.0000
  O3     O3        0.698585596494276    0.606932389367373    0.481753532734445  0.0000
  O2     O2        0.305504448861191    0.622750260677636    0.510194452381883  0.0000
  O2     O2        0.804201138430988    0.880127610223999    0.509166897416811  0.0000
  O3     O3        0.195894338804958    0.889917655121684    0.472007001171199  0.0000
  O2     O2        0.182319524519850    0.108643484281988    0.483792926742464  0.0000
  O3     O3        0.783094415245779    0.107942690716663    0.509538170580726  0.0000
  O2     O2        0.254505888196737    0.505520564481837    0.285137216370537  0.0000
  O3     O3        0.723489597661132    0.485169588972324    0.726298727940802  0.0000
  O2     O2        0.753619372276186    0.993803190357331    0.281394993333421  0.0000
  O3     O3        0.213890058276279    0.003293062278421    0.723744236377285  0.0000
  O2     O2        0.387706050698536    0.502598005034884    0.726868126838760  0.0000
  O2     O2        0.608853627172463    0.493781915118757    0.259813739176658  0.0000
  O3     O3        0.900033072056694    0.987459370642302    0.742167176170867  0.0000
  O2     O2        0.098846628414194    0.003939329739475    0.247409383251485  0.0000
