data_c00832.vasp
_audit_creation_method             Generated by GULP
_audit_author_name                 Salvador R. G. Balestra
_symmetry_space_group_name_H-M     'P 1             '
_symmetry_Int_Tables_number        1

loop_
_symmetry_equiv_pos_site_id
_symmetry_equiv_pos_as_xyz
_cell_length_a                       10.1922
_cell_length_b                       15.2655
_cell_length_c                        8.9236
_cell_angle_alpha                   90.3732
_cell_angle_beta                   105.2217
_cell_angle_gamma                   90.0399

loop_
_atom_site_label
_atom_site_type_symbol
_atom_site_fract_x
_atom_site_fract_y
_atom_site_fract_z
_atom_site_charge
  Ge     Ge        0.351599999999962    0.244500000000016    0.893900000000031  0.0000
  Ge     Ge        0.724830137216855    0.594788833013955    0.665257591001469  0.0000
  Ge     Ge        0.624406534633410    0.385333773492230    0.309681207048611  0.0000
  Ge     Ge        0.124194361819962    0.090221287682881    0.299944563840100  0.0000
  Si     Si        0.651791008352190    0.225924884220502    0.105492390550142  0.0000
  Si     Si        0.660936340822086    0.746550984251886    0.099020928166182  0.0000
  Si     Si        0.363352713136343    0.748965825616100    0.889271970195118  0.0000
  Si     Si        0.868693024240685    0.740713912024450    0.893098178513815  0.0000
  Si     Si        0.164657035043819    0.732672641730866    0.104348046579103  0.0000
  Si     Si        0.143721229132079    0.252421408545569    0.100360977891601  0.0000
  Si     Si        0.849150910284931    0.240691098853269    0.894846213700113  0.0000
  Si     Si        0.317638792636805    0.387246858459640    0.328546820028104  0.0000
  Si     Si        0.720878044020876    0.391539026937743    0.676249233322284  0.0000
  Si     Si        0.324992666320209    0.590595374782187    0.322597219866468  0.0000
  Si     Si        0.826701577477648    0.884811220320322    0.330930737443541  0.0000
  Si     Si        0.222422833230968    0.893668894543483    0.671126615438542  0.0000
  Si     Si        0.223012109605377    0.093407238620964    0.665671227561970  0.0000
  Si     Si        0.818823735588777    0.088395508799372    0.324976208936614  0.0000
  Si     Si        0.416325270432623    0.396492077041904    0.683464463117367  0.0000
  Si     Si        0.626430044977691    0.588406908996681    0.299609114745322  0.0000
  Si     Si        0.417408376653545    0.600339137025362    0.675711602612522  0.0000
  Si     Si        0.921121295489979    0.891216789759026    0.686559968624646  0.0000
  Si     Si        0.128282936794194    0.886869127044926    0.311221577585282  0.0000
  Si     Si        0.919108840416682    0.093867422506448    0.680558556137221  0.0000
  O3     O3        0.490373132426738    0.222616255372614    0.044318162237882  0.0000
  O2     O2        0.504948397439852    0.765972193738711    0.014732065249604  0.0000
  O2     O2        0.005641563854942    0.723014534804910    0.025006187340470  0.0000
  O2     O2        0.980517224769834    0.259329886521287    0.036440311243818  0.0000
  O3     O3        0.333594389787695    0.158523986395660    0.765039779286169  0.0000
  O2     O2        0.695630093463631    0.143200762867608    0.218780131465192  0.0000
  O2     O2        0.711803759285527    0.823354839329338    0.224986505046694  0.0000
  O2     O2        0.337154376583644    0.830301870139228    0.770899151370771  0.0000
  O3     O3        0.849142639639061    0.664594662992080    0.766224282615280  0.0000
  O2     O2        0.210351134129331    0.646832345110707    0.207117004842482  0.0000
  O2     O2        0.193531189961310    0.329369336827011    0.227946966959112  0.0000
  O2     O2        0.825273909889368    0.323300692226687    0.780563107035626  0.0000
  O3     O3        0.366362121355693    0.343720521886061    0.809032319377396  0.0000
  O3     O3        0.694028497316520    0.315344646592727    0.201285846097321  0.0000
  O2     O2        0.676350116899117    0.653503395825954    0.185147394954021  0.0000
  O2     O2        0.359763703848829    0.658973588696202    0.793718594153793  0.0000
  O2     O2        0.870284908374966    0.834283591162571    0.810137797176245  0.0000
  O2     O2        0.192388827177934    0.818195225042226    0.214465498570453  0.0000
  O3     O3        0.183281909184341    0.158911196567724    0.181430658561762  0.0000
  O2     O2        0.867761974646113    0.153380750058551    0.801010466652972  0.0000
  O3     O3        0.209355997268060    0.260299692914503    0.958614562184324  0.0000
  O2     O2        0.719686611541863    0.223714598428121    0.961639115015415  0.0000
  O2     O2        0.743834266836766    0.742044584279348    0.970462644228889  0.0000
  O2     O2        0.244351821293531    0.742690175685491    0.974145506257164  0.0000
  O3     O3        0.457258864690765    0.355967486729116    0.295561277618008  0.0000
  O2     O2        0.569029355144535    0.368365078732395    0.686889296372379  0.0000
  O3     O3        0.569887032512225    0.629184910512703    0.686994442006136  0.0000
  O2     O2        0.473380957920427    0.614331726042967    0.303830775590960  0.0000
  O2     O2        0.971438198646007    0.862691870539327    0.299563935930116  0.0000
  O2     O2        0.077712084400314    0.868746713045602    0.700100337619982  0.0000
  O2     O2        0.074689658606550    0.117389709542375    0.689023120032134  0.0000
  O3     O3        0.957162448940746    0.116231946978851    0.287216463256988  0.0000
  O2     O2        0.322392619223196    0.376491178547628    0.509996626444384  0.0000
  O3     O3        0.723034850208939    0.383095235003128    0.498343361116404  0.0000
  O3     O3        0.723742119133445    0.595642152007736    0.471943741541439  0.0000
  O2     O2        0.323440578708391    0.611423945480525    0.499841501084439  0.0000
  O2     O2        0.832571175212775    0.868990180196214    0.511629114934846  0.0000
  O2     O2        0.215650731400923    0.883417777479373    0.489919208429938  0.0000
  O3     O3        0.221225086187402    0.103203904124931    0.487764673048910  0.0000
  O2     O2        0.827749163116302    0.109049522432130    0.505685371301920  0.0000
  O2     O2        0.292680700897672    0.488865317507327    0.281584710815683  0.0000
  O3     O3        0.759911043425606    0.489605111932429    0.734797183073347  0.0000
  O2     O2        0.789918259926010    0.985598405958162    0.289127638424368  0.0000
  O2     O2        0.260198487774403    0.993808870074528    0.722093134875327  0.0000
  O2     O2        0.413766388213385    0.499222514971526    0.724402066545088  0.0000
  O3     O3        0.627735991953316    0.490055913462413    0.238202049780131  0.0000
  O2     O2        0.905874019156218    0.992980545994826    0.727178068778476  0.0000
  O3     O3        0.136232418288099    0.982694207354222    0.244080565149299  0.0000
