data_c00982.vasp
_audit_creation_method             Generated by GULP
_audit_author_name                 Salvador R. G. Balestra
_symmetry_space_group_name_H-M     'P 1             '
_symmetry_Int_Tables_number        1

loop_
_symmetry_equiv_pos_site_id
_symmetry_equiv_pos_as_xyz
_cell_length_a                       10.2147
_cell_length_b                       15.2218
_cell_length_c                        8.9403
_cell_angle_alpha                   89.6409
_cell_angle_beta                   105.1118
_cell_angle_gamma                   89.5139

loop_
_atom_site_label
_atom_site_type_symbol
_atom_site_fract_x
_atom_site_fract_y
_atom_site_fract_z
_atom_site_charge
  Ge     Ge        0.351599999999962    0.244500000000016    0.893900000000031  0.0000
  Ge     Ge        0.191164683625729    0.893390752788501    0.662627031794322  0.0000
  Ge     Ge        0.782552671075138    0.106086236674348    0.340970536000955  0.0000
  Ge     Ge        0.390235130999392    0.604144887834936    0.696358384975193  0.0000
  Si     Si        0.651523231592275    0.252918166537002    0.107317299102444  0.0000
  Si     Si        0.659701220378928    0.753925049042833    0.113582491700788  0.0000
  Si     Si        0.362110012108028    0.760271915223977    0.902384613403723  0.0000
  Si     Si        0.857720879631088    0.739082014144059    0.896757711873552  0.0000
  Si     Si        0.150497957753113    0.756251581577638    0.099768801590914  0.0000
  Si     Si        0.150590211290215    0.262599681403449    0.112409745858775  0.0000
  Si     Si        0.856994530435537    0.255682062730411    0.903693248238482  0.0000
  Si     Si        0.290137218282580    0.411011958678482    0.321140560125662  0.0000
  Si     Si        0.683079801310819    0.393690081291934    0.671088320904189  0.0000
  Si     Si        0.696169495003787    0.598832160730660    0.679052223225155  0.0000
  Si     Si        0.296897104904136    0.611926262001357    0.333675871969836  0.0000
  Si     Si        0.788351276211810    0.903240608480266    0.335638953841858  0.0000
  Si     Si        0.187626714590465    0.098945940148990    0.675108502268450  0.0000
  Si     Si        0.381041828065156    0.399640620896144    0.681495770959594  0.0000
  Si     Si        0.593034824011866    0.402836549201856    0.314000794731539  0.0000
  Si     Si        0.602917059267384    0.604643355285342    0.325444561331166  0.0000
  Si     Si        0.888621129959488    0.894849288905373    0.690530772985050  0.0000
  Si     Si        0.090252271147658    0.907944747987242    0.304900898294830  0.0000
  Si     Si        0.089010155296078    0.108561915360361    0.317798891166051  0.0000
  Si     Si        0.890111698586340    0.098192437576670    0.703224801819720  0.0000
  O3     O3        0.524144294118309    0.237476846497123    0.965883604934555  0.0000
  O2     O2        0.518493548810159    0.773579767838885    0.990428202252066  0.0000
  O2     O2        0.016571710027864    0.725324666610733    0.975215379265000  0.0000
  O2     O2        0.014364006373772    0.277855439954480    0.976151112987713  0.0000
  O3     O3        0.306097029526247    0.155236055185465    0.777501689002047  0.0000
  O3     O3        0.662320648028317    0.176810496648268    0.234410476063625  0.0000
  O2     O2        0.687891566873986    0.833112581372091    0.234820169251663  0.0000
  O3     O3        0.323820387202234    0.828464170548247    0.761119664814875  0.0000
  O2     O2        0.815982513950082    0.654960471928075    0.787180625626548  0.0000
  O2     O2        0.192276077580351    0.680198109502907    0.228543767240196  0.0000
  O2     O2        0.174384979739585    0.349040479100293    0.220460409299866  0.0000
  O2     O2        0.797230101229985    0.329697285918132    0.773750268249806  0.0000
  O3     O3        0.310671744943116    0.336635236798499    0.777236147960086  0.0000
  O2     O2        0.645184377475332    0.345768516934319    0.191748139712579  0.0000
  O2     O2        0.656125905450185    0.663558423581584    0.206039813574788  0.0000
  O3     O3        0.336505462949060    0.663797097540382    0.831153135249319  0.0000
  O2     O2        0.828629227952383    0.830102460446703    0.798961726094476  0.0000
  O2     O2        0.122646538066988    0.848222201499170    0.172769994047710  0.0000
  O2     O2        0.145655196573684    0.175532337152859    0.212471335979835  0.0000
  O2     O2        0.843015860436357    0.159008476440513    0.827019013333734  0.0000
  O3     O3        0.277380942335016    0.248787034142467    0.043385124551421  0.0000
  O2     O2        0.783825542439704    0.254379314181870    0.041305878033060  0.0000
  O2     O2        0.778168203460915    0.743971181564393    0.028567131844706  0.0000
  O2     O2        0.269147765192778    0.776292634694031    0.018833496211718  0.0000
  O2     O2        0.433964504477458    0.384899300820315    0.290055847402884  0.0000
  O2     O2        0.538147272847945    0.370776907043729    0.700344153616595  0.0000
  O3     O3        0.556459507539656    0.630587675903826    0.709252374932963  0.0000
  O2     O2        0.448286959555593    0.629984594964053    0.318449400944559  0.0000
  O2     O2        0.940437436509283    0.888833657999104    0.321585765627905  0.0000
  O3     O3        0.038543509425139    0.861719071243082    0.693970134836240  0.0000
  O2     O2        0.041556639964441    0.126581503571427    0.700832678845310  0.0000
  O3     O3        0.936270535673244    0.133774223119812    0.310472972941997  0.0000
  O2     O2        0.298883938938959    0.397793251161449    0.501447797514798  0.0000
  O2     O2        0.675998527215858    0.379098057929134    0.490023092403860  0.0000
  O2     O2        0.694436833209502    0.617284382065186    0.500082366571068  0.0000
  O3     O3        0.293218244060602    0.624087054120809    0.509432029201465  0.0000
  O2     O2        0.791499575704262    0.891379354364078    0.516367454164853  0.0000
  O3     O3        0.191697349308032    0.887084775090014    0.469775425690406  0.0000
  O2     O2        0.180960388609898    0.111993609705958    0.493940740003603  0.0000
  O3     O3        0.789743232057429    0.113218641429386    0.535387699957955  0.0000
  O2     O2        0.254131991837115    0.512902489548505    0.276667810475818  0.0000
  O2     O2        0.719406147105744    0.494802235412626    0.716088913002803  0.0000
  O3     O3        0.737867759719422    0.000287327226775    0.280799898467665  0.0000
  O3     O3        0.220338261004667    0.999169604554370    0.725423935581268  0.0000
  O3     O3        0.377331463442425    0.496554573111502    0.746041000128997  0.0000
  O2     O2        0.614329299389367    0.504146559665436    0.275776164543550  0.0000
  O2     O2        0.889882327805509    0.995191763915982    0.751412226739625  0.0000
  O2     O2        0.098778700931628    0.009668353298088    0.255215695111037  0.0000
