data_c00916.vasp
_audit_creation_method             Generated by GULP
_audit_author_name                 Salvador R. G. Balestra
_symmetry_space_group_name_H-M     'P 1             '
_symmetry_Int_Tables_number        1

loop_
_symmetry_equiv_pos_site_id
_symmetry_equiv_pos_as_xyz
_cell_length_a                       10.2672
_cell_length_b                       15.1952
_cell_length_c                        8.9274
_cell_angle_alpha                   90.5410
_cell_angle_beta                   104.9499
_cell_angle_gamma                   89.9775

loop_
_atom_site_label
_atom_site_type_symbol
_atom_site_fract_x
_atom_site_fract_y
_atom_site_fract_z
_atom_site_charge
  Ge     Ge        0.351599999999962    0.244500000000016    0.893900000000031  0.0000
  Ge     Ge        0.829944141303436    0.878702822782880    0.340868281550799  0.0000
  Ge     Ge        0.235905596177649    0.892832268454004    0.676151842103615  0.0000
  Ge     Ge        0.817164762171272    0.087641832559523    0.336798138436834  0.0000
  Si     Si        0.649935572089511    0.228079422860553    0.110157246061268  0.0000
  Si     Si        0.691094585155571    0.732217175974717    0.110527252030072  0.0000
  Si     Si        0.398758673865020    0.749780765882895    0.893348711207071  0.0000
  Si     Si        0.894008470231691    0.730868428059190    0.900554468184238  0.0000
  Si     Si        0.190649649146682    0.735455066444303    0.098434256316686  0.0000
  Si     Si        0.148335119140454    0.249364206311492    0.109607479215613  0.0000
  Si     Si        0.857521559530332    0.242764472200933    0.907735880248020  0.0000
  Si     Si        0.324576811196214    0.388395060400047    0.333106162059958  0.0000
  Si     Si        0.717401854195629    0.386964997052549    0.680288997232096  0.0000
  Si     Si        0.727851152165127    0.590909815708697    0.671161336314965  0.0000
  Si     Si        0.334207979723483    0.591317361695431    0.322615804661260  0.0000
  Si     Si        0.221205570107094    0.096877306671458    0.662195477963168  0.0000
  Si     Si        0.417120891384049    0.396260418064260    0.690863076430136  0.0000
  Si     Si        0.625706147038287    0.381682220087727    0.322512715770607  0.0000
  Si     Si        0.635840528143640    0.583620140740728    0.314378251270053  0.0000
  Si     Si        0.425897720475079    0.598601044571815    0.677810508014551  0.0000
  Si     Si        0.937373005620720    0.887349495982998    0.706486758873577  0.0000
  Si     Si        0.129078598767178    0.887113301391003    0.307354209374256  0.0000
  Si     Si        0.115995541533122    0.088760647253409    0.301772137523451  0.0000
  Si     Si        0.928276380454171    0.091701998131955    0.700040416653604  0.0000
  O3     O3        0.492905643439362    0.217736710030643    0.033154437261126  0.0000
  O2     O2        0.554489256191137    0.752031656784132    0.983020327753250  0.0000
  O2     O2        0.050379568621811    0.711723426101351    0.977484399305264  0.0000
  O2     O2        0.988869403970227    0.267558268361209    0.043645261976906  0.0000
  O3     O3        0.329118643693465    0.167504962619715    0.746705599379448  0.0000
  O3     O3        0.688734460416788    0.149252591914755    0.228400320701504  0.0000
  O3     O3        0.710526960414960    0.805535950461119    0.242649796086333  0.0000
  O3     O3        0.368776402936860    0.833011316827129    0.782865580318326  0.0000
  O2     O2        0.842228839503854    0.653338794597863    0.774646588353928  0.0000
  O2     O2        0.224533346898419    0.653691217050612    0.215371008784994  0.0000
  O2     O2        0.208033111975752    0.326918285326637    0.232306643534675  0.0000
  O2     O2        0.827099722279896    0.322776330383221    0.785599500545203  0.0000
  O3     O3        0.359733247054041    0.346306579641910    0.813547784378663  0.0000
  O2     O2        0.682022072169185    0.319294431637211    0.208767210920251  0.0000
  O2     O2        0.691367038437500    0.637531129258844    0.191078913727583  0.0000
  O2     O2        0.365930495435318    0.662079568270649    0.786708297870406  0.0000
  O2     O2        0.877003107335897    0.826368548653372    0.819913075633939  0.0000
  O2     O2        0.186322646654506    0.825536788623249    0.192228613537078  0.0000
  O2     O2        0.173836063120692    0.155054599292153    0.194855400802275  0.0000
  O2     O2        0.879412742677750    0.151656511686862    0.823936733468361  0.0000
  O3     O3        0.213921218339583    0.249142452796969    0.967795545546538  0.0000
  O2     O2        0.731759845578606    0.227724116035350    0.979577141824372  0.0000
  O2     O2        0.814756071125700    0.731953427824185    0.032469384912239  0.0000
  O2     O2        0.306274658096505    0.749209227917691    0.011600715342587  0.0000
  O2     O2        0.466102635239673    0.363806626537736    0.296068917363512  0.0000
  O2     O2        0.573771297128339    0.370226855485279    0.716010737539910  0.0000
  O2     O2        0.584791727821138    0.616883470703175    0.701774005559848  0.0000
  O2     O2        0.479343211694555    0.607437152628677    0.290543181133627  0.0000
  O3     O3        0.969268721627398    0.876686415835897    0.266979980553781  0.0000
  O3     O3        0.098464006981861    0.879822305358490    0.751407021330966  0.0000
  O2     O2        0.089567919388264    0.100291599866525    0.730648494891459  0.0000
  O3     O3        0.955430021193671    0.094923333207950    0.260933849878637  0.0000
  O2     O2        0.335987383653367    0.373406516161934    0.514244276821558  0.0000
  O2     O2        0.704855134292932    0.363816424695256    0.500330499479268  0.0000
  O2     O2        0.720076204773464    0.605802708254586    0.490086894046013  0.0000
  O2     O2        0.344409261911971    0.615832362117776    0.500994248291214  0.0000
  O3     O3        0.879521304362745    0.851692522812282    0.533774997230864  0.0000
  O3     O3        0.195716049274314    0.861397365352873    0.483562637804229  0.0000
  O2     O2        0.173908767257804    0.117388469861051    0.480105373446171  0.0000
  O3     O3        0.855457543355851    0.121757029759196    0.528460588836235  0.0000
  O2     O2        0.289139486454223    0.489898039075308    0.288979906153598  0.0000
  O2     O2        0.761988922187507    0.488796744113792    0.714257358433678  0.0000
  O1     O1        0.762213272055723    0.981396389298808    0.323838725929979  0.0000
  O3     O3        0.286240434481993    0.001133260353665    0.689438221715352  0.0000
  O2     O2        0.403806238932575    0.499377781690059    0.723699043802461  0.0000
  O2     O2        0.651143010633596    0.481120647513615    0.278330742938806  0.0000
  O2     O2        0.892727253358600    0.989028531547816    0.720428541310139  0.0000
  O2     O2        0.163011876714011    0.989183260037005    0.277694301467829  0.0000
