data_c00968.vasp
_audit_creation_method             Generated by GULP
_audit_author_name                 Salvador R. G. Balestra
_symmetry_space_group_name_H-M     'P 1             '
_symmetry_Int_Tables_number        1

loop_
_symmetry_equiv_pos_site_id
_symmetry_equiv_pos_as_xyz
_cell_length_a                       10.1555
_cell_length_b                       15.2289
_cell_length_c                        8.9858
_cell_angle_alpha                   89.4266
_cell_angle_beta                   104.8596
_cell_angle_gamma                   90.2285

loop_
_atom_site_label
_atom_site_type_symbol
_atom_site_fract_x
_atom_site_fract_y
_atom_site_fract_z
_atom_site_charge
  Ge     Ge        0.351599999999962    0.244500000000016    0.893900000000031  0.0000
  Ge     Ge        0.786747207679231    0.904926176160506    0.315241999566897  0.0000
  Ge     Ge        0.105769001946158    0.899346679299779    0.292548067254399  0.0000
  Ge     Ge        0.909107247756921    0.112129153755110    0.680552087300531  0.0000
  Si     Si        0.652657030220369    0.254551766598569    0.099303519082729  0.0000
  Si     Si        0.626914431704279    0.762047165755077    0.087757248145050  0.0000
  Si     Si        0.330303428156239    0.752603891256249    0.874873378361108  0.0000
  Si     Si        0.836492428009895    0.751392207694264    0.883661957913503  0.0000
  Si     Si        0.131669877933822    0.739625988976276    0.086627296967134  0.0000
  Si     Si        0.134096799327526    0.263058972312589    0.099380259551395  0.0000
  Si     Si        0.845269857639934    0.268049137505108    0.883906735636150  0.0000
  Si     Si        0.306978133092371    0.400605748038491    0.323358288643462  0.0000
  Si     Si        0.703938445115015    0.408059471195251    0.656398388698786  0.0000
  Si     Si        0.696819162688913    0.609301132832681    0.654007252982930  0.0000
  Si     Si        0.298817945868247    0.603395629293304    0.314820799500350  0.0000
  Si     Si        0.196804289398268    0.900426071519985    0.650802907960279  0.0000
  Si     Si        0.214469996616395    0.104201863909875    0.658237782285343  0.0000
  Si     Si        0.803399529750794    0.105385263345119    0.329049892176861  0.0000
  Si     Si        0.400890496452817    0.402032676000368    0.677242245640897  0.0000
  Si     Si        0.608101704531514    0.406936373067819    0.302228599950961  0.0000
  Si     Si        0.602115098036072    0.608490836153773    0.299001487416515  0.0000
  Si     Si        0.392520538039793    0.604693728803177    0.666992028675605  0.0000
  Si     Si        0.894492934631815    0.904413886577297    0.674382376957201  0.0000
  Si     Si        0.113573265158466    0.099037292387182    0.311063474814972  0.0000
  O3     O3        0.497081708111866    0.226775163268018    0.038405233093614  0.0000
  O2     O2        0.468542314557246    0.768508253950682    0.002952787670266  0.0000
  O2     O2        0.970856201421739    0.726547438492949    0.014790434571952  0.0000
  O2     O2        0.981059889753265    0.291496355037682    0.014113929475221  0.0000
  O3     O3        0.335507177980732    0.159704498391689    0.763972287933811  0.0000
  O2     O2        0.736472063379035    0.181232610635679    0.211885606223022  0.0000
  O3     O3        0.659566966502449    0.841381478839021    0.204468231370005  0.0000
  O2     O2        0.304276082319956    0.838045741123378    0.765329873291478  0.0000
  O2     O2        0.805839668235939    0.674783518800696    0.756796336672844  0.0000
  O2     O2        0.179079602313515    0.660621871682925    0.208974777899414  0.0000
  O2     O2        0.193966582502574    0.339525231709881    0.218544983730814  0.0000
  O2     O2        0.820999761549444    0.344167287479791    0.752735483960580  0.0000
  O3     O3        0.352309458639018    0.343734581110655    0.799172933175103  0.0000
  O2     O2        0.666097095702164    0.346542372382670    0.189779560538828  0.0000
  O2     O2        0.658554642336674    0.670862032653155    0.185149606331087  0.0000
  O2     O2        0.335307737069153    0.665055363787773    0.779097019447476  0.0000
  O2     O2        0.855269968962887    0.843310673189607    0.803021692922390  0.0000
  O3     O3        0.163826193179986    0.831318823201957    0.172274516260842  0.0000
  O2     O2        0.130855961510347    0.173358455539905    0.192701271247427  0.0000
  O3     O3        0.856290588255857    0.173980600784597    0.812971269350614  0.0000
  O3     O3        0.216057710539540    0.246769705580904    0.974384308513318  0.0000
  O2     O2        0.715495331150075    0.267737760086420    0.954797789035915  0.0000
  O2     O2        0.713565685831445    0.764050055250313    0.962232211606951  0.0000
  O2     O2        0.206487098147212    0.736695371942017    0.950887633564194  0.0000
  O2     O2        0.450461616579809    0.382035463657249    0.284449094288535  0.0000
  O2     O2        0.560481392072083    0.385710133894737    0.692679170768348  0.0000
  O2     O2        0.550902308172194    0.626263681339633    0.686440616225928  0.0000
  O2     O2        0.442450672672585    0.627336811911378    0.279280794966417  0.0000
  O1     O1        0.936740592769082    0.878521593676932    0.273942876084668  0.0000
  O2     O2        0.042995846222396    0.877899050758868    0.655361703283160  0.0000
  O3     O3        0.074591022651374    0.140829741251441    0.687195565865705  0.0000
  O2     O2        0.964197344738850    0.091489033371650    0.341953503751373  0.0000
  O2     O2        0.317812526219377    0.379691704789715    0.502295324906208  0.0000
  O2     O2        0.693690714672598    0.391143373406462    0.477308354682238  0.0000
  O2     O2        0.686682419652675    0.627197040014226    0.474114705643715  0.0000
  O2     O2        0.307484467381998    0.624238624187363    0.492384894994855  0.0000
  O3     O3        0.792064402386082    0.891957602400359    0.508504745879325  0.0000
  O3     O3        0.204975077067105    0.885200286674024    0.478799581331117  0.0000
  O2     O2        0.215961455214232    0.116453643832566    0.478843492729068  0.0000
  O3     O3        0.798218966787939    0.128619969923184    0.500620094529719  0.0000
  O2     O2        0.264257841838609    0.501194765931377    0.282949367152773  0.0000
  O2     O2        0.744209526955953    0.509194556413037    0.697176141809764  0.0000
  O3     O3        0.736184009519336    0.013022903057794    0.272182965175935  0.0000
  O2     O2        0.230612164070363    0.001057698773245    0.702260802487391  0.0000
  O2     O2        0.375351161478526    0.503524467142273    0.711009366723593  0.0000
  O2     O2        0.622106851730780    0.508085537165472    0.254826699891169  0.0000
  O3     O3        0.896915194831967    0.003447151548438    0.731880904468121  0.0000
  O3     O3        0.137982544339659    0.006256417321234    0.242623368191794  0.0000
