data_c00935.vasp
_audit_creation_method             Generated by GULP
_audit_author_name                 Salvador R. G. Balestra
_symmetry_space_group_name_H-M     'P 1             '
_symmetry_Int_Tables_number        1

loop_
_symmetry_equiv_pos_site_id
_symmetry_equiv_pos_as_xyz
_cell_length_a                       10.3178
_cell_length_b                       15.1682
_cell_length_c                        8.9465
_cell_angle_alpha                   89.5613
_cell_angle_beta                   104.9988
_cell_angle_gamma                   89.6797

loop_
_atom_site_label
_atom_site_type_symbol
_atom_site_fract_x
_atom_site_fract_y
_atom_site_fract_z
_atom_site_charge
  Ge     Ge        0.351599999999962    0.244500000000016    0.893900000000031  0.0000
  Ge     Ge        0.808701270300729    0.905779279602350    0.325331200013712  0.0000
  Ge     Ge        0.819079877755154    0.116122462314677    0.342762427209399  0.0000
  Ge     Ge        0.619704008504113    0.405698645586100    0.306334983027089  0.0000
  Si     Si        0.650828927916592    0.250958076606558    0.103282489441403  0.0000
  Si     Si        0.650621725834724    0.764881119181336    0.100701080334542  0.0000
  Si     Si        0.356049776065069    0.754105850832794    0.887197849447539  0.0000
  Si     Si        0.861710986204501    0.745984395098197    0.899191513379311  0.0000
  Si     Si        0.155985613278301    0.747542622826575    0.102829499641215  0.0000
  Si     Si        0.147581631171879    0.262973402166004    0.108109840183936  0.0000
  Si     Si        0.858806395648250    0.255400376629849    0.904814188822749  0.0000
  Si     Si        0.316023062369630    0.403638473037892    0.324110491016707  0.0000
  Si     Si        0.712940393387469    0.398369391580875    0.669260059976286  0.0000
  Si     Si        0.710863615169801    0.603572033119315    0.675097900441204  0.0000
  Si     Si        0.318441781253219    0.607936354062134    0.331281205950349  0.0000
  Si     Si        0.207950798963521    0.895487795006503    0.656710878660283  0.0000
  Si     Si        0.219081262340639    0.096861292405182    0.667029850076654  0.0000
  Si     Si        0.411772282059376    0.399848579589067    0.680719762260500  0.0000
  Si     Si        0.618139025687183    0.612450586612797    0.318066556911570  0.0000
  Si     Si        0.412264386706760    0.602743612490233    0.686973327481744  0.0000
  Si     Si        0.913183137069757    0.900278215896851    0.688435365583046  0.0000
  Si     Si        0.109340055157369    0.902025981186239    0.302303348835677  0.0000
  Si     Si        0.117797530477858    0.106581726949656    0.313164473765243  0.0000
  Si     Si        0.925044074497344    0.102504183911319    0.702845489143985  0.0000
  O3     O3        0.497882757968171    0.225727693005171    0.031133377485534  0.0000
  O2     O2        0.500641271439706    0.775063362475465    0.995725149819950  0.0000
  O2     O2        0.005163249154344    0.723670880963483    0.013393266907164  0.0000
  O2     O2        0.989456590822927    0.281705454472593    0.037338500875314  0.0000
  O3     O3        0.332511164845612    0.156486342852360    0.769088256993008  0.0000
  O3     O3        0.698986954105712    0.190853675945135    0.255087922892960  0.0000
  O3     O3        0.678881112117657    0.846716458874667    0.213659142397643  0.0000
  O2     O2        0.319630725798104    0.829715285510359    0.755818422397339  0.0000
  O2     O2        0.823361443201639    0.664404079010714    0.781924656866725  0.0000
  O2     O2        0.204033960430318    0.671403036020958    0.231368357780791  0.0000
  O2     O2        0.198933073493455    0.343990603675688    0.222539470991489  0.0000
  O2     O2        0.822545205855023    0.334833031303809    0.779891349592686  0.0000
  O3     O3        0.355845298505290    0.341811305470495    0.795395235896115  0.0000
  O3     O3        0.668026183231175    0.350781223549270    0.162807297928152  0.0000
  O2     O2        0.672706998531008    0.677500633386771    0.207980332719277  0.0000
  O2     O2        0.355012071912360    0.660053425259679    0.805092655139871  0.0000
  O2     O2        0.866012604335199    0.836626060666318    0.806962568405639  0.0000
  O2     O2        0.165535097785361    0.842927990994599    0.183880656141708  0.0000
  O2     O2        0.176750148395586    0.169728978474203    0.201367420655920  0.0000
  O2     O2        0.886261162411028    0.163995766907361    0.829026636524403  0.0000
  O3     O3        0.217253957196788    0.257363403006532    0.970167927014630  0.0000
  O2     O2        0.736638346659397    0.235287640474985    0.979593343348622  0.0000
  O2     O2        0.753307891075336    0.760437604504826    0.994932200165515  0.0000
  O2     O2        0.247132665466509    0.750816445838536    0.984286940567221  0.0000
  O3     O3        0.453870370660080    0.378331975069619    0.285702055487051  0.0000
  O2     O2        0.567004515711752    0.376084329183711    0.693437987557121  0.0000
  O2     O2        0.568034314860386    0.625845840336927    0.707748298564661  0.0000
  O2     O2        0.460771454420441    0.631496249285416    0.299703892178815  0.0000
  O3     O3        0.959749069313559    0.872372031783326    0.294196653300667  0.0000
  O2     O2        0.062224493339110    0.872482801583303    0.679433134297074  0.0000
  O2     O2        0.075536923892733    0.124844065596142    0.693959261400136  0.0000
  O3     O3        0.972153691156302    0.142711090619430    0.311427868138860  0.0000
  O2     O2        0.326614963166600    0.385371301429316    0.504545287743937  0.0000
  O3     O3        0.712077476722907    0.381665264586575    0.492933101684134  0.0000
  O2     O2        0.702204039915767    0.625113499741949    0.496036567663278  0.0000
  O2     O2        0.327020612076333    0.622404731061426    0.511743810757632  0.0000
  O3     O3        0.814390710906126    0.894098828598341    0.519681075670428  0.0000
  O2     O2        0.203287445120450    0.887085710810316    0.475909332139059  0.0000
  O2     O2        0.213985290441539    0.110605692218225    0.486578778040471  0.0000
  O3     O3        0.825106792185680    0.119346042015166    0.537189630534049  0.0000
  O2     O2        0.282622981697805    0.506825269864351    0.285098369478363  0.0000
  O2     O2        0.748533497905072    0.500724521532346    0.710306500965562  0.0000
  O1     O1        0.776679242991767    0.013288334908498    0.273550403028598  0.0000
  O2     O2        0.249074882274080    0.994399591925291    0.713080833564931  0.0000
  O2     O2        0.399003366655155    0.500970716333565    0.728863785120818  0.0000
  O3     O3        0.638370339727049    0.514700930420923    0.266560151473358  0.0000
  O2     O2        0.914962277900633    0.000224218602079    0.751343596204912  0.0000
  O2     O2        0.110278606192344    0.005348596183531    0.254730721760085  0.0000
