data_c00946.vasp
_audit_creation_method             Generated by GULP
_audit_author_name                 Salvador R. G. Balestra
_symmetry_space_group_name_H-M     'P 1             '
_symmetry_Int_Tables_number        1

loop_
_symmetry_equiv_pos_site_id
_symmetry_equiv_pos_as_xyz
_cell_length_a                       10.1852
_cell_length_b                       15.2073
_cell_length_c                        8.9704
_cell_angle_alpha                   89.8312
_cell_angle_beta                   104.9304
_cell_angle_gamma                   89.8932

loop_
_atom_site_label
_atom_site_type_symbol
_atom_site_fract_x
_atom_site_fract_y
_atom_site_fract_z
_atom_site_charge
  Ge     Ge        0.351599999999962    0.244500000000016    0.893900000000031  0.0000
  Ge     Ge        0.767161795154362    0.909091266296135    0.313777012577182  0.0000
  Ge     Ge        0.377058747308400    0.407925500973542    0.678265796136164  0.0000
  Ge     Ge        0.086751988308623    0.905102472911208    0.293134317328118  0.0000
  Si     Si        0.656194337555448    0.258974048462105    0.094139885946319  0.0000
  Si     Si        0.633405819694395    0.761146987816215    0.085455112402969  0.0000
  Si     Si        0.338621230011181    0.764957232565823    0.873375139071345  0.0000
  Si     Si        0.840669285258653    0.751617482107071    0.879851407973551  0.0000
  Si     Si        0.137625949723118    0.748943743698885    0.083135921221742  0.0000
  Si     Si        0.138960609086744    0.261634150986957    0.093766593093809  0.0000
  Si     Si        0.853854647671099    0.271506802821463    0.878150503454818  0.0000
  Si     Si        0.281027105549362    0.407047502744376    0.314623370750255  0.0000
  Si     Si        0.683069640644763    0.407850266478166    0.652713938501269  0.0000
  Si     Si        0.676993474411897    0.612870100024178    0.649048531983168  0.0000
  Si     Si        0.280025613848267    0.607658032797537    0.309387176373499  0.0000
  Si     Si        0.175866393192344    0.904748723021274    0.650466541359605  0.0000
  Si     Si        0.181088277194626    0.110981096325900    0.652289043497922  0.0000
  Si     Si        0.778382474405676    0.107766343338108    0.327751010431615  0.0000
  Si     Si        0.584722852910821    0.407797880471951    0.299154310897023  0.0000
  Si     Si        0.582515346433625    0.610686328159446    0.296002774474270  0.0000
  Si     Si        0.374629918905034    0.612276486832155    0.665449534448897  0.0000
  Si     Si        0.874245182319912    0.909116686947095    0.676044620849201  0.0000
  Si     Si        0.084106823391487    0.106336296106798    0.303523179174367  0.0000
  Si     Si        0.883061804867825    0.112293193238979    0.681144571165599  0.0000
  O3     O3        0.523410136013788    0.228790868122122    0.970056602642476  0.0000
  O2     O2        0.497242432991504    0.775574527768608    0.951574778601138  0.0000
  O2     O2        0.995751854637747    0.728364256342687    0.961653226761361  0.0000
  O2     O2        0.013791229192250    0.287505724315618    0.950077147290896  0.0000
  O3     O3        0.304110818858311    0.163090496870017    0.757196770105415  0.0000
  O2     O2        0.698168733591408    0.187018466616582    0.228806466925927  0.0000
  O3     O3        0.647173245206106    0.839397909982628    0.205751339311652  0.0000
  O2     O2        0.289301378248525    0.853178830455808    0.777079899557396  0.0000
  O2     O2        0.788926722398372    0.675534572075624    0.754372048185009  0.0000
  O2     O2        0.164523293094530    0.672433600879674    0.213314666773231  0.0000
  O2     O2        0.170053263021657    0.344439973535942    0.207934761375635  0.0000
  O2     O2        0.804734105269068    0.349444650606058    0.755102851228846  0.0000
  O1     O1        0.319180183803828    0.344251018258544    0.803040097378764  0.0000
  O2     O2        0.630975161946671    0.350603683727277    0.172439699108280  0.0000
  O2     O2        0.634661462898241    0.668841240107001    0.174895767997108  0.0000
  O2     O2        0.311315997735780    0.682021904748175    0.759560358039564  0.0000
  O2     O2        0.828175128454282    0.847264017728228    0.798891369554465  0.0000
  O3     O3        0.138995900300805    0.842868166023268    0.160302714472244  0.0000
  O2     O2        0.095573705678510    0.178457329473363    0.179498963103323  0.0000
  O2     O2        0.828901226536247    0.176477830103475    0.794611528632936  0.0000
  O3     O3        0.269496459315910    0.235340622795724    0.037673948875193  0.0000
  O2     O2        0.777768099053874    0.273635581720697    0.013567496824635  0.0000
  O2     O2        0.758988898284700    0.756736243974203    0.009255582850313  0.0000
  O2     O2        0.259053582097998    0.747053875403896    0.001108706851964  0.0000
  O2     O2        0.429717275546165    0.383898964466795    0.292457710998505  0.0000
  O3     O3        0.544186189911050    0.379576776848371    0.690231858929883  0.0000
  O2     O2        0.531429661342782    0.635579632661548    0.677134221001934  0.0000
  O2     O2        0.425673742706604    0.633156986138960    0.282725941588023  0.0000
  O1     O1        0.917073422750885    0.888713388195260    0.269129976495485  0.0000
  O2     O2        0.027669484860952    0.884542200706662    0.674738585461256  0.0000
  O2     O2        0.040799399981897    0.135477709687290    0.696456683717250  0.0000
  O2     O2        0.928545315773743    0.090727135865289    0.306455240460302  0.0000
  O3     O3        0.281470414736429    0.393789358680295    0.490641231069921  0.0000
  O2     O2        0.675586419641530    0.390555273676089    0.472577840579123  0.0000
  O2     O2        0.672282870902666    0.629920819257092    0.469700588987222  0.0000
  O2     O2        0.285873412660563    0.616689211317815    0.489072916159384  0.0000
  O3     O3        0.779276306897452    0.893134582495895    0.508108945809157  0.0000
  O3     O3        0.175393297545960    0.877179421541168    0.479409394886199  0.0000
  O2     O2        0.168923923837585    0.136804462103796    0.473777813571957  0.0000
  O2     O2        0.792143213439830    0.128789313466148    0.507617610250991  0.0000
  O2     O2        0.242933528028054    0.507261986807601    0.259488614053024  0.0000
  O2     O2        0.712545181556391    0.510868966715008    0.690991798905464  0.0000
  O3     O3        0.705624819513256    0.015930222372510    0.278192897639863  0.0000
  O2     O2        0.209006668139769    0.007517560276023    0.674240208198579  0.0000
  O3     O3        0.366499049989088    0.515919371400628    0.731700332932868  0.0000
  O2     O2        0.597786932587364    0.509137698658289    0.253544925565152  0.0000
  O2     O2        0.867292142944721    0.010919979672558    0.728396799034417  0.0000
  O3     O3        0.131556307274109    0.012162063831944    0.260238092928997  0.0000
