data_c00913.vasp
_audit_creation_method             Generated by GULP
_audit_author_name                 Salvador R. G. Balestra
_symmetry_space_group_name_H-M     'P 1             '
_symmetry_Int_Tables_number        1

loop_
_symmetry_equiv_pos_site_id
_symmetry_equiv_pos_as_xyz
_cell_length_a                       10.2324
_cell_length_b                       15.2140
_cell_length_c                        8.9489
_cell_angle_alpha                   89.2132
_cell_angle_beta                   105.2568
_cell_angle_gamma                   89.6824

loop_
_atom_site_label
_atom_site_type_symbol
_atom_site_fract_x
_atom_site_fract_y
_atom_site_fract_z
_atom_site_charge
  Ge     Ge        0.351599999999962    0.244500000000016    0.893900000000031  0.0000
  Ge     Ge        0.280746244878960    0.616449994287706    0.331166089194328  0.0000
  Ge     Ge        0.082018053946744    0.908734519779105    0.301711340700623  0.0000
  Ge     Ge        0.884256159392907    0.106033142945709    0.698227100895426  0.0000
  Si     Si        0.652564671777236    0.261318832049013    0.106738530385737  0.0000
  Si     Si        0.639351795914093    0.766273762349703    0.105694688517746  0.0000
  Si     Si        0.342600586247028    0.757474103506508    0.898037201403846  0.0000
  Si     Si        0.835478303581411    0.746842105833658    0.888218337488047  0.0000
  Si     Si        0.130915277305582    0.756270438009031    0.094944865759429  0.0000
  Si     Si        0.144577856264018    0.265352893861653    0.105076052500669  0.0000
  Si     Si        0.851642644591402    0.265964792594101    0.898458932802790  0.0000
  Si     Si        0.281831920222887    0.412849115208764    0.317022575855026  0.0000
  Si     Si        0.676243147704655    0.400740711712215    0.664544858231745  0.0000
  Si     Si        0.679000749755414    0.603538341114679    0.671112922440708  0.0000
  Si     Si        0.774916132912920    0.912430138708520    0.321289131563578  0.0000
  Si     Si        0.174924101073593    0.895814449469019    0.661151194593582  0.0000
  Si     Si        0.187331856291883    0.102132362164131    0.674411723736928  0.0000
  Si     Si        0.780503413757595    0.112454190196594    0.337434531304934  0.0000
  Si     Si        0.376081235250873    0.403024285263115    0.678985952824154  0.0000
  Si     Si        0.583454001798760    0.411180082833013    0.307613319695800  0.0000
  Si     Si        0.589760976144827    0.614659604529924    0.318121106928969  0.0000
  Si     Si        0.378280583072205    0.603841824841554    0.691462068040150  0.0000
  Si     Si        0.874697630776304    0.900811628582285    0.678678748756670  0.0000
  Si     Si        0.086100670484660    0.113546295124169    0.321461436280656  0.0000
  O3     O3        0.523605621409521    0.239114264856386    0.971119570431843  0.0000
  O2     O2        0.495911119342546    0.780779818795636    0.983104098469627  0.0000
  O2     O2        0.993312360553161    0.733315615414615    0.969016252974944  0.0000
  O2     O2        0.011576082931538    0.283688312630899    0.964934939640388  0.0000
  O3     O3        0.311445560593802    0.151785296437583    0.783164007340893  0.0000
  O2     O2        0.677231716443933    0.181991536040108    0.232361563439259  0.0000
  O2     O2        0.660847785261787    0.849424558768126    0.219387672860801  0.0000
  O2     O2        0.287774824784080    0.835407172429044    0.774699144271214  0.0000
  O2     O2        0.789765860751428    0.660652813097592    0.787641764361926  0.0000
  O3     O3        0.155511017828873    0.688377235047527    0.237719110397107  0.0000
  O2     O2        0.169721335783023    0.348227122824807    0.218718000775148  0.0000
  O2     O2        0.794302115516853    0.338037349626463    0.763096696937618  0.0000
  O3     O3        0.310622689333477    0.337670075474417    0.776851539782493  0.0000
  O2     O2        0.636542973586035    0.353013169286340    0.188218937357022  0.0000
  O2     O2        0.648147165069791    0.676197825290104    0.204523587879417  0.0000
  O2     O2        0.334536766226390    0.663697834833326    0.815894887537857  0.0000
  O2     O2        0.810920892812856    0.832894649851857    0.777644951100107  0.0000
  O3     O3        0.128367055998158    0.853652948569755    0.157945222781832  0.0000
  O2     O2        0.126046368129606    0.180037431400420    0.203142582828987  0.0000
  O3     O3        0.828010034247904    0.170085045955084    0.825510083158369  0.0000
  O3     O3        0.272056609558045    0.248090538326109    0.039227992850870  0.0000
  O2     O2        0.781335218949986    0.273038023745718    0.037816156492108  0.0000
  O2     O2        0.755712473546735    0.760460666092728    0.017214522618033  0.0000
  O2     O2        0.257406020290320    0.746628630434047    0.022375886232407  0.0000
  O2     O2        0.426376261738952    0.389664547570246    0.285899852830244  0.0000
  O2     O2        0.533179866828437    0.375321468084734    0.697250814948233  0.0000
  O2     O2        0.530978285781780    0.627470296876699    0.688643208892477  0.0000
  O3     O3        0.437063600788456    0.642970039204739    0.306173118033032  0.0000
  O3     O3        0.916290799121087    0.885118622719701    0.291478968071609  0.0000
  O2     O2        0.027198394073851    0.871051394600608    0.680908442158833  0.0000
  O3     O3        0.049170442321872    0.135256821372038    0.709548532726150  0.0000
  O2     O2        0.933124165961641    0.129935575289608    0.329212708327658  0.0000
  O2     O2        0.293378791077108    0.400958382330922    0.499219443080270  0.0000
  O2     O2        0.667893457352375    0.388763505696377    0.483376049629210  0.0000
  O2     O2        0.681228495189527    0.624582168799373    0.494524329726260  0.0000
  O3     O3        0.281164594405986    0.622052165976635    0.523469955662444  0.0000
  O2     O2        0.781846118395427    0.901020098525557    0.502694081824616  0.0000
  O3     O3        0.179448318884325    0.881549945271034    0.486107055499980  0.0000
  O2     O2        0.182711764664336    0.123080919483006    0.494915664793392  0.0000
  O3     O3        0.778460891357599    0.120931356259966    0.513932430259964  0.0000
  O3     O3        0.239873287596710    0.511552718185346    0.265316426672551  0.0000
  O2     O2        0.712904671745642    0.501160993739866    0.711648694991893  0.0000
  O2     O2        0.737892322457272    0.014388552995357    0.274452827716735  0.0000
  O2     O2        0.202700912369524    0.997532005565880    0.704651386604124  0.0000
  O2     O2        0.370358941867289    0.501908074494636    0.740777033268231  0.0000
  O2     O2        0.598111978289173    0.513625694066693    0.267536862349362  0.0000
  O3     O3        0.876630988815057    0.996616973701367    0.749482160420329  0.0000
  O3     O3        0.102133901629123    0.017431024449037    0.260316935657436  0.0000
