data_c00963.vasp
_audit_creation_method             Generated by GULP
_audit_author_name                 Salvador R. G. Balestra
_symmetry_space_group_name_H-M     'P 1             '
_symmetry_Int_Tables_number        1

loop_
_symmetry_equiv_pos_site_id
_symmetry_equiv_pos_as_xyz
_cell_length_a                       10.1608
_cell_length_b                       15.2515
_cell_length_c                        8.9594
_cell_angle_alpha                   89.5641
_cell_angle_beta                   105.3326
_cell_angle_gamma                   90.0845

loop_
_atom_site_label
_atom_site_type_symbol
_atom_site_fract_x
_atom_site_fract_y
_atom_site_fract_z
_atom_site_charge
  Ge     Ge        0.351599999999962    0.244500000000016    0.893900000000031  0.0000
  Ge     Ge        0.765841112515707    0.909004712360279    0.321122217261857  0.0000
  Ge     Ge        0.365806582899289    0.607858519227972    0.682986355963725  0.0000
  Ge     Ge        0.880080634103585    0.111461330464570    0.693249757401970  0.0000
  Si     Si        0.653850239550523    0.262577680132174    0.107404131837183  0.0000
  Si     Si        0.629593593191060    0.760291002357144    0.096407637945301  0.0000
  Si     Si        0.332294193380482    0.764003139907224    0.887134487198722  0.0000
  Si     Si        0.837504351581479    0.750195579070471    0.892966924837246  0.0000
  Si     Si        0.135993234678082    0.755040621038260    0.100938730251156  0.0000
  Si     Si        0.144841654656903    0.258833682601006    0.105777621290242  0.0000
  Si     Si        0.851340252901094    0.271206512227734    0.897451574275239  0.0000
  Si     Si        0.280564569127300    0.407044465950582    0.322096307216878  0.0000
  Si     Si        0.675570243082031    0.406651990192518    0.669518492679417  0.0000
  Si     Si        0.673767841276891    0.612062987511328    0.667864751000613  0.0000
  Si     Si        0.271999086057820    0.606310400115228    0.321317887186389  0.0000
  Si     Si        0.166690692701325    0.902363353879034    0.661032410831982  0.0000
  Si     Si        0.183028268095155    0.106567077935575    0.666466952380187  0.0000
  Si     Si        0.773444934077356    0.110822740584264    0.331636245514724  0.0000
  Si     Si        0.373573176795368    0.403410523274323    0.683701468356025  0.0000
  Si     Si        0.584707228077528    0.409054546341096    0.313816039254653  0.0000
  Si     Si        0.580808142997951    0.611087647802025    0.315392581286042  0.0000
  Si     Si        0.868233081336536    0.906273184295229    0.686878672056392  0.0000
  Si     Si        0.076396158053628    0.904967631810547    0.307006050559130  0.0000
  Si     Si        0.081116905353649    0.106357011304492    0.314616287374119  0.0000
  O3     O3        0.525068330045341    0.241010873737075    0.969020936558107  0.0000
  O2     O2        0.494303126689116    0.771964047322048    0.957691863094168  0.0000
  O2     O2        0.996793322378260    0.737664480014844    0.972228081889217  0.0000
  O2     O2        0.014488698813711    0.281512834858900    0.964107471092088  0.0000
  O3     O3        0.310628381829592    0.155238650431961    0.773781937251846  0.0000
  O2     O2        0.675596134794505    0.183944408137976    0.231485925899280  0.0000
  O3     O3        0.644172547414290    0.840379194752683    0.212980935385207  0.0000
  O2     O2        0.286541315581504    0.843857681254143    0.766279564612739  0.0000
  O2     O2        0.793087459158187    0.668531985614908    0.778293765204826  0.0000
  O2     O2        0.162788851618982    0.670727855027408    0.213198213123404  0.0000
  O2     O2        0.170225094393988    0.339172218622702    0.226374976776063  0.0000
  O2     O2        0.798300293988765    0.350255874718465    0.775657094127565  0.0000
  O3     O3        0.308171205107292    0.338146579585174    0.782015792499487  0.0000
  O2     O2        0.638440583004078    0.352805173340207    0.192912050414451  0.0000
  O2     O2        0.626952194567290    0.670334129844555    0.191103436478727  0.0000
  O3     O3        0.297914907314410    0.672895023193474    0.798879849977345  0.0000
  O2     O2        0.811203429938633    0.841132901052304    0.797074003003261  0.0000
  O2     O2        0.133280214211337    0.844028678077417    0.194045426061755  0.0000
  O2     O2        0.120418529362450    0.169324994359468    0.190474821507259  0.0000
  O3     O3        0.818452836448473    0.179179497792654    0.811366831052045  0.0000
  O3     O3        0.274618881225989    0.243170882796992    0.042218008635446  0.0000
  O2     O2        0.784632153505792    0.274446249005659    0.040482301698954  0.0000
  O2     O2        0.757899467769764    0.754397113205127    0.024711024781969  0.0000
  O2     O2        0.259254847597963    0.768460402525981    0.023810699028234  0.0000
  O2     O2        0.426254379577446    0.386111597635542    0.291056914765188  0.0000
  O2     O2        0.532825102279967    0.378383463672395    0.702681568115395  0.0000
  O3     O3        0.531247972266837    0.639830743330368    0.695880064840756  0.0000
  O2     O2        0.423856936656772    0.629120204396667    0.309105484474153  0.0000
  O3     O3        0.920626542797260    0.881519490731603    0.290544528462642  0.0000
  O2     O2        0.020223216418588    0.874990017045605    0.683888254337488  0.0000
  O3     O3        0.045078353725772    0.142785646848941    0.699928194009855  0.0000
  O2     O2        0.928984536193532    0.124506139992356    0.324369323737882  0.0000
  O2     O2        0.291135423838714    0.397987719159564    0.503326138231047  0.0000
  O2     O2        0.669273991587660    0.388515495620157    0.490133871102187  0.0000
  O2     O2        0.672064010645690    0.631066986594448    0.488897660124900  0.0000
  O3     O3        0.266207819875673    0.617909899798981    0.495526299717562  0.0000
  O3     O3        0.771298394993460    0.901826929514394    0.514664702311379  0.0000
  O2     O2        0.165629815591925    0.888148510867598    0.482817489774539  0.0000
  O2     O2        0.180321687580800    0.121190063947522    0.485922760947941  0.0000
  O3     O3        0.772882319103766    0.118721453434421    0.508809076072345  0.0000
  O2     O2        0.235107237254789    0.506040211267203    0.267227942640957  0.0000
  O2     O2        0.701803675521288    0.509187277929724    0.706124522833080  0.0000
  O3     O3        0.723095372996235    0.016051722965789    0.265357290745030  0.0000
  O2     O2        0.194177792274854    0.003329516916749    0.706745965116400  0.0000
  O3     O3        0.364252789497179    0.500802948668289    0.743765380689350  0.0000
  O2     O2        0.601462729435412    0.510593620250671    0.273234395848625  0.0000
  O3     O3        0.874640356789163    0.003748975916684    0.752886423562177  0.0000
  O2     O2        0.092226663494012    0.006440640326420    0.260435034556384  0.0000
