data_c00918.vasp
_audit_creation_method             Generated by GULP
_audit_author_name                 Salvador R. G. Balestra
_symmetry_space_group_name_H-M     'P 1             '
_symmetry_Int_Tables_number        1

loop_
_symmetry_equiv_pos_site_id
_symmetry_equiv_pos_as_xyz
_cell_length_a                       10.2311
_cell_length_b                       15.2007
_cell_length_c                        8.9540
_cell_angle_alpha                   89.5735
_cell_angle_beta                   104.9822
_cell_angle_gamma                   89.9113

loop_
_atom_site_label
_atom_site_type_symbol
_atom_site_fract_x
_atom_site_fract_y
_atom_site_fract_z
_atom_site_charge
  Ge     Ge        0.351599999999962    0.244500000000016    0.893900000000031  0.0000
  Ge     Ge        0.806783480313884    0.903545092160777    0.325310402032680  0.0000
  Ge     Ge        0.213654127906389    0.894136014266661    0.658062207313207  0.0000
  Ge     Ge        0.619508219652192    0.402094939318832    0.304860257243997  0.0000
  Si     Si        0.651323489924121    0.244350412837070    0.103935328361852  0.0000
  Si     Si        0.647849046263651    0.760033198355987    0.103072625695927  0.0000
  Si     Si        0.353212828303771    0.748214226665852    0.887728523005923  0.0000
  Si     Si        0.852974797236506    0.744487143092516    0.894092884352071  0.0000
  Si     Si        0.148355978429527    0.744023669141669    0.095126557984166  0.0000
  Si     Si        0.142925130176278    0.259541354184363    0.104493535287706  0.0000
  Si     Si        0.851249290296569    0.250908305463401    0.895633858250209  0.0000
  Si     Si        0.312027707958775    0.400040868962654    0.321864674886865  0.0000
  Si     Si        0.712178394618054    0.397449439588835    0.668164072086727  0.0000
  Si     Si        0.709337008526101    0.599909498110644    0.673073774510715  0.0000
  Si     Si        0.316843772783348    0.605205247615672    0.325412828630568  0.0000
  Si     Si        0.218435658083493    0.098192200995702    0.666240721990953  0.0000
  Si     Si        0.817598695670455    0.108803855804575    0.336243340085885  0.0000
  Si     Si        0.407552926259766    0.397348402932579    0.675912635611755  0.0000
  Si     Si        0.619973371655060    0.606710671761091    0.314609995799371  0.0000
  Si     Si        0.407342829796558    0.600944291593448    0.679267298413074  0.0000
  Si     Si        0.908180915401255    0.896607591870712    0.683694226171393  0.0000
  Si     Si        0.112786012684697    0.899901025243116    0.298290922265698  0.0000
  Si     Si        0.114390673530319    0.101499196203392    0.308526220270292  0.0000
  Si     Si        0.921390567749541    0.100572373516126    0.691789605403947  0.0000
  O3     O3        0.494456795702209    0.223370951045210    0.038185113315000  0.0000
  O2     O2        0.490327229367115    0.760427411143561    0.018533299100230  0.0000
  O2     O2        0.992905717615337    0.721652622591063    0.016976280408831  0.0000
  O2     O2        0.983105177276249    0.273122746319174    0.030959821667854  0.0000
  O3     O3        0.332125900776148    0.162701696057187    0.757726198976568  0.0000
  O2     O2        0.707441215893497    0.178550877806246    0.247823883072371  0.0000
  O3     O3        0.678998767584533    0.846585584863113    0.204026642236953  0.0000
  O3     O3        0.336909172488336    0.825729024958597    0.763755667713083  0.0000
  O2     O2        0.821345246008347    0.664456176228040    0.773101461557696  0.0000
  O2     O2        0.203194199515674    0.667204003139214    0.219795541294307  0.0000
  O2     O2        0.193298895849193    0.342371606766688    0.215358722825640  0.0000
  O2     O2        0.821239722527319    0.332912022429811    0.776629743281883  0.0000
  O3     O3        0.358699749564388    0.343527036592264    0.801760464315301  0.0000
  O3     O3        0.673962721029212    0.341894325692799    0.171735858805810  0.0000
  O2     O2        0.683418797700281    0.676123654414723    0.218181654502440  0.0000
  O2     O2        0.349626452214716    0.655754602827269    0.799789995211228  0.0000
  O2     O2        0.860025678123492    0.836864402052642    0.807994205591132  0.0000
  O2     O2        0.161571425278838    0.838985016351810    0.176498362709769  0.0000
  O2     O2        0.173074248705231    0.168626494237444    0.203314084006946  0.0000
  O2     O2        0.869155189206952    0.161093143275342    0.809504019116512  0.0000
  O3     O3        0.214032941018341    0.252924116586366    0.967771825040802  0.0000
  O2     O2        0.725412914607829    0.233728743182073    0.967603812722622  0.0000
  O2     O2        0.735549641149799    0.754757540502214    0.979890495113312  0.0000
  O2     O2        0.227745191959797    0.749156392913550    0.963602200556209  0.0000
  O3     O3        0.452109444799281    0.374894870086267    0.285781459451576  0.0000
  O2     O2        0.563017334804789    0.373828679636885    0.684537433071918  0.0000
  O2     O2        0.564551278076925    0.624374218340945    0.701345194229771  0.0000
  O2     O2        0.461508450087737    0.627466647444461    0.295683764082766  0.0000
  O3     O3        0.962072958385340    0.872950671600455    0.301580750036457  0.0000
  O3     O3        0.055404231448883    0.865865828523037    0.674829655031082  0.0000
  O2     O2        0.075208546089673    0.126045524032277    0.698537630231274  0.0000
  O2     O2        0.962476219025084    0.130532208976425    0.304858440266474  0.0000
  O2     O2        0.319285649902806    0.379331510844840    0.501251346890492  0.0000
  O3     O3        0.714594330737720    0.385080694852447    0.492098027651172  0.0000
  O2     O2        0.703275386104743    0.613674186652034    0.493377739539703  0.0000
  O2     O2        0.322517931391562    0.623593468721313    0.504380979277323  0.0000
  O3     O3        0.805657853935734    0.887771873474662    0.516248296748443  0.0000
  O3     O3        0.213430532209677    0.887410059690404    0.465772100618916  0.0000
  O2     O2        0.207322597770855    0.103769269924632    0.483195475678010  0.0000
  O2     O2        0.827747220815251    0.115612401676187    0.518780372352625  0.0000
  O2     O2        0.280881710043248    0.503443421064808    0.285773864955970  0.0000
  O2     O2        0.747915671554193    0.498520771477851    0.719424955463393  0.0000
  O3     O3        0.773126246393156    0.012497439582228    0.277120503705071  0.0000
  O3     O3        0.254135745898396    0.999387696366037    0.723131704022163  0.0000
  O2     O2        0.392755366564507    0.499089136196792    0.716192185784588  0.0000
  O3     O3        0.634398083130653    0.510275839266466    0.254007210128401  0.0000
  O2     O2        0.913564206694058    0.998412738714425    0.738857156344055  0.0000
  O2     O2        0.114536971611953    0.002318350050563    0.244613128513204  0.0000
