data_c00949.vasp
_audit_creation_method             Generated by GULP
_audit_author_name                 Salvador R. G. Balestra
_symmetry_space_group_name_H-M     'P 1             '
_symmetry_Int_Tables_number        1

loop_
_symmetry_equiv_pos_site_id
_symmetry_equiv_pos_as_xyz
_cell_length_a                       10.2230
_cell_length_b                       15.1844
_cell_length_c                        8.9768
_cell_angle_alpha                   89.6189
_cell_angle_beta                   105.1999
_cell_angle_gamma                   89.6656

loop_
_atom_site_label
_atom_site_type_symbol
_atom_site_fract_x
_atom_site_fract_y
_atom_site_fract_z
_atom_site_charge
  Ge     Ge        0.351599999999962    0.244500000000016    0.893900000000031  0.0000
  Ge     Ge        0.802399299007305    0.910089326682692    0.318795406897850  0.0000
  Ge     Ge        0.615733179761523    0.405335950064864    0.303230464342234  0.0000
  Ge     Ge        0.612517302877319    0.616500122063789    0.311350153083684  0.0000
  Si     Si        0.652314004050111    0.249959636699334    0.101403143022498  0.0000
  Si     Si        0.637955185597643    0.771189091942983    0.093483953293852  0.0000
  Si     Si        0.340149087817494    0.751742119802829    0.885436489335177  0.0000
  Si     Si        0.845444254938527    0.752859612507815    0.893316233861291  0.0000
  Si     Si        0.140508282965511    0.745590410316804    0.099524091564319  0.0000
  Si     Si        0.143626788112368    0.263201153963648    0.104397702598228  0.0000
  Si     Si        0.851809205003677    0.256580919506614    0.894212368431726  0.0000
  Si     Si        0.312777661294700    0.402265311257743    0.323015845273202  0.0000
  Si     Si        0.710393163911612    0.402613837891607    0.666320218260806  0.0000
  Si     Si        0.706141976769040    0.605587084624342    0.672791993021323  0.0000
  Si     Si        0.308361956723525    0.609085223027106    0.326923958378609  0.0000
  Si     Si        0.204903144799673    0.896443029214893    0.653761923243157  0.0000
  Si     Si        0.219657736190315    0.097704540753260    0.666151704517470  0.0000
  Si     Si        0.819746899500791    0.115111132236061    0.335624900448670  0.0000
  Si     Si        0.406209552566484    0.400160140713655    0.676522213325434  0.0000
  Si     Si        0.401423144527747    0.602968813284718    0.679422470878789  0.0000
  Si     Si        0.904309934143474    0.902845183352400    0.678316891403246  0.0000
  Si     Si        0.110422918568805    0.902528489428261    0.299613178539828  0.0000
  Si     Si        0.118888240702507    0.105243867935667    0.310524668088089  0.0000
  Si     Si        0.921183504348845    0.105404752248786    0.690996350013616  0.0000
  O3     O3        0.496092901774250    0.226115622947883    0.037495684956529  0.0000
  O2     O2        0.478639970328927    0.770721095551707    0.011584264765537  0.0000
  O2     O2        0.982032152456869    0.731727121519299    0.023584377658049  0.0000
  O2     O2        0.983606548074816    0.277914046951930    0.030571918635286  0.0000
  O3     O3        0.334758054435647    0.157201261871256    0.767826416633453  0.0000
  O2     O2        0.712439121183955    0.186595410998536    0.247623326389838  0.0000
  O3     O3        0.669306191960735    0.855234210929252    0.202187109792209  0.0000
  O2     O2        0.312481940591295    0.829214425609143    0.757656006884265  0.0000
  O2     O2        0.813946462070638    0.668018502720507    0.784417751477618  0.0000
  O2     O2        0.185040080346682    0.665566401792658    0.220926816088571  0.0000
  O2     O2        0.191993038011647    0.345938037975730    0.216245774398002  0.0000
  O2     O2        0.821244559322600    0.338542906441591    0.775117058218636  0.0000
  O3     O3        0.356682160732092    0.341726459092766    0.795851787462327  0.0000
  O3     O3        0.671825298953814    0.347520331120136    0.168095279320399  0.0000
  O3     O3        0.679802667171465    0.685261687909500    0.199606373499702  0.0000
  O2     O2        0.347984527110767    0.659406593627724    0.801587871855795  0.0000
  O2     O2        0.860001133043329    0.840807118856889    0.799747804463854  0.0000
  O2     O2        0.166057279181750    0.839585218277268    0.185966112155785  0.0000
  O2     O2        0.174410216242097    0.171532824642973    0.201893179614376  0.0000
  O2     O2        0.871588422362138    0.167012200966271    0.808584393833641  0.0000
  O3     O3        0.214891593086140    0.257088523996807    0.968136232744934  0.0000
  O2     O2        0.725460855737299    0.239333296228053    0.964725004137604  0.0000
  O2     O2        0.723049462881111    0.773480210083163    0.967451340521406  0.0000
  O2     O2        0.219756628443161    0.744776865610653    0.967837857911984  0.0000
  O3     O3        0.452354567155822    0.370780268950869    0.292609004834313  0.0000
  O2     O2        0.561210631630768    0.376812065130755    0.680478175962222  0.0000
  O2     O2        0.555329391212252    0.628627751954916    0.686477143648626  0.0000
  O3     O3        0.446669231739432    0.645552042777505    0.300895759878116  0.0000
  O3     O3        0.954717418742768    0.880513513834268    0.284424512487845  0.0000
  O2     O2        0.056243368986512    0.877911421966338    0.673584044599312  0.0000
  O2     O2        0.078245181876324    0.124465225619396    0.703552968264309  0.0000
  O2     O2        0.964743015066276    0.131156069525106    0.301604271332452  0.0000
  O2     O2        0.314580977869228    0.386550178714215    0.501833338889248  0.0000
  O3     O3        0.714699988898803    0.393012463680267    0.490768857815098  0.0000
  O3     O3        0.711200759060707    0.622331027904585    0.499399770872605  0.0000
  O2     O2        0.308375552154503    0.620120507855364    0.506199586802815  0.0000
  O3     O3        0.806655141154953    0.890021644194437    0.509872648201093  0.0000
  O2     O2        0.200344678641396    0.884586746054769    0.474319861740208  0.0000
  O2     O2        0.209403069755568    0.114024050039662    0.485682311654779  0.0000
  O2     O2        0.832400479691842    0.124872734161760    0.517533384295627  0.0000
  O2     O2        0.292640711775500    0.506165149425284    0.281579905895737  0.0000
  O2     O2        0.742867819875725    0.503603635598563    0.719161845193134  0.0000
  O3     O3        0.768478355933794    0.019694118377366    0.278587203626044  0.0000
  O2     O2        0.251746309596401    0.994957449676360    0.706807094543298  0.0000
  O2     O2        0.394557979371884    0.501264589156244    0.725856809428286  0.0000
  O1     O1        0.618040974852931    0.512107988088624    0.246744254319599  0.0000
  O2     O2        0.900239549781520    0.003935120556132    0.733240812724522  0.0000
  O2     O2        0.125840753223605    0.004712707192107    0.253834860697007  0.0000
