data_c00958.vasp
_audit_creation_method             Generated by GULP
_audit_author_name                 Salvador R. G. Balestra
_symmetry_space_group_name_H-M     'P 1             '
_symmetry_Int_Tables_number        1

loop_
_symmetry_equiv_pos_site_id
_symmetry_equiv_pos_as_xyz
_cell_length_a                       10.2277
_cell_length_b                       15.2401
_cell_length_c                        8.9599
_cell_angle_alpha                   90.4477
_cell_angle_beta                   105.2017
_cell_angle_gamma                   89.5182

loop_
_atom_site_label
_atom_site_type_symbol
_atom_site_fract_x
_atom_site_fract_y
_atom_site_fract_z
_atom_site_charge
  Ge     Ge        0.351599999999962    0.244500000000016    0.893900000000031  0.0000
  Ge     Ge        0.766239101498389    0.901792335353108    0.328404576992454  0.0000
  Ge     Ge        0.576454596760834    0.605702603283940    0.307290402423569  0.0000
  Ge     Ge        0.083009397558397    0.099447935061011    0.307311005902892  0.0000
  Si     Si        0.651748018523731    0.251248966530554    0.105936624228076  0.0000
  Si     Si        0.601878405749332    0.761335549605405    0.098623280496061  0.0000
  Si     Si        0.304766412846578    0.753335650449427    0.887863463304754  0.0000
  Si     Si        0.808788558599772    0.754034897570783    0.896129429936283  0.0000
  Si     Si        0.104305029486778    0.739041997799602    0.099967119024392  0.0000
  Si     Si        0.142484750114575    0.256985652181014    0.101694501319533  0.0000
  Si     Si        0.849691358642482    0.265180196708924    0.894922718565909  0.0000
  Si     Si        0.282328842022085    0.398425056261182    0.327689259107161  0.0000
  Si     Si        0.675917066304672    0.404675411883827    0.672929619452739  0.0000
  Si     Si        0.669685506808334    0.607984815084712    0.667427774885804  0.0000
  Si     Si        0.269823174089543    0.601222058896844    0.320746802389678  0.0000
  Si     Si        0.167086234183912    0.898112502200699    0.665139244302685  0.0000
  Si     Si        0.181638515912616    0.101052845315514    0.668807673710397  0.0000
  Si     Si        0.774944472276273    0.103931927980301    0.330863964226708  0.0000
  Si     Si        0.374174909570644    0.402817199455733    0.684520716783717  0.0000
  Si     Si        0.582735480619827    0.399424923515362    0.314429261848564  0.0000
  Si     Si        0.364877860298406    0.604212506906953    0.675622730330905  0.0000
  Si     Si        0.870609485888381    0.904988244295557    0.692770559508198  0.0000
  Si     Si        0.074696910226468    0.895339273409748    0.307312822183649  0.0000
  Si     Si        0.880886466514533    0.107322844580218    0.689391795009108  0.0000
  O3     O3        0.523128600656009    0.231871874632684    0.967119046306754  0.0000
  O2     O2        0.443444590240747    0.769985526834252    0.015513824136164  0.0000
  O2     O2        0.945607105815999    0.728137675010349    0.021724861430512  0.0000
  O2     O2        0.009168996862143    0.281352600762122    0.966573412643510  0.0000
  O3     O3        0.301857108107968    0.154333323400439    0.777413391709948  0.0000
  O2     O2        0.671124568105485    0.174081273955309    0.231297078298257  0.0000
  O3     O3        0.637909661696851    0.836166328743718    0.228060802157033  0.0000
  O2     O2        0.279684471977411    0.834992350829157    0.770481253679101  0.0000
  O2     O2        0.775276465551042    0.672863912205961    0.777217901797372  0.0000
  O2     O2        0.147531054637849    0.656105625234013    0.212417077549984  0.0000
  O2     O2        0.166681984453588    0.334003685071961    0.231770698676827  0.0000
  O2     O2        0.792895769272720    0.345051490026272    0.779258650137172  0.0000
  O3     O3        0.315225642433919    0.341215419140999    0.791171412547691  0.0000
  O2     O2        0.639576825977223    0.340707379581727    0.196996328201909  0.0000
  O3     O3        0.634567450257712    0.667668149891098    0.180128677338272  0.0000
  O2     O2        0.309834516998936    0.664213183075272    0.792678681936527  0.0000
  O2     O2        0.821868648951521    0.845561630037738    0.813913824459160  0.0000
  O2     O2        0.132063645107017    0.827830633493245    0.201094260231590  0.0000
  O3     O3        0.128233673040467    0.163447760746754    0.174387103795979  0.0000
  O2     O2        0.826635345385643    0.173311648687219    0.800433468940696  0.0000
  O3     O3        0.273959622967680    0.251276702241687    0.039614405124739  0.0000
  O2     O2        0.780584438629446    0.260076589529756    0.035526301357951  0.0000
  O2     O2        0.688978857426793    0.771942601084212    0.975991778507239  0.0000
  O2     O2        0.184281171691987    0.742396584211674    0.968978084567318  0.0000
  O2     O2        0.426935461825987    0.373855134279013    0.297890510811814  0.0000
  O2     O2        0.532952580861644    0.379701318219327    0.705149934274226  0.0000
  O2     O2        0.518830363293613    0.628902667211999    0.682748586378000  0.0000
  O3     O3        0.409502747375308    0.632722910103829    0.292016479526197  0.0000
  O3     O3        0.912274163932603    0.889156653863124    0.269206426178498  0.0000
  O2     O2        0.030757938823631    0.890212192037675    0.720182311369082  0.0000
  O2     O2        0.042494183718696    0.118601370616992    0.719194378574590  0.0000
  O3     O3        0.911023400108950    0.103365887745697    0.276037214855669  0.0000
  O2     O2        0.290612981093306    0.386507133896288    0.507582633501360  0.0000
  O2     O2        0.668941662358931    0.387916905949945    0.492659334701117  0.0000
  O3     O3        0.673588296466019    0.624036428219195    0.493485099159333  0.0000
  O2     O2        0.273121134387549    0.616211731963834    0.500821857942018  0.0000
  O3     O3        0.792883800181307    0.877029453746970    0.521701280142759  0.0000
  O2     O2        0.137327093688080    0.869251433422652    0.486828403002085  0.0000
  O3     O3        0.162732950971770    0.130917962546464    0.493562876230938  0.0000
  O2     O2        0.808368313030469    0.130134456534881    0.512211613178053  0.0000
  O2     O2        0.245655030226243    0.498642537439523    0.277217996957920  0.0000
  O2     O2        0.708954683268260    0.506787454541592    0.713664645872448  0.0000
  O3     O3        0.709275134923834    0.008903446894533    0.304723572881735  0.0000
  O2     O2        0.219179074195319    0.997763350078274    0.683265506885367  0.0000
  O2     O2        0.358668100461584    0.504178704377003    0.729714393205348  0.0000
  O3     O3        0.591695892017055    0.497661329643972    0.260365020075076  0.0000
  O2     O2        0.844589345255477    0.007869477822109    0.724800698136983  0.0000
  O3     O3        0.122809989939039    0.991229425885597    0.277631757335436  0.0000
