data_c00962.vasp
_audit_creation_method             Generated by GULP
_audit_author_name                 Salvador R. G. Balestra
_symmetry_space_group_name_H-M     'P 1             '
_symmetry_Int_Tables_number        1

loop_
_symmetry_equiv_pos_site_id
_symmetry_equiv_pos_as_xyz
_cell_length_a                       10.2512
_cell_length_b                       15.2617
_cell_length_c                        8.9501
_cell_angle_alpha                   89.7421
_cell_angle_beta                   105.4321
_cell_angle_gamma                   89.7701

loop_
_atom_site_label
_atom_site_type_symbol
_atom_site_fract_x
_atom_site_fract_y
_atom_site_fract_z
_atom_site_charge
  Ge     Ge        0.351599999999962    0.244500000000016    0.893900000000031  0.0000
  Ge     Ge        0.797959459899812    0.908256896651656    0.319154800588207  0.0000
  Ge     Ge        0.399302816494891    0.602114076806513    0.683060235737780  0.0000
  Ge     Ge        0.117970449301059    0.106826724941190    0.313067989019749  0.0000
  Si     Si        0.652035148226204    0.254370237347020    0.108894875881905  0.0000
  Si     Si        0.658786681163295    0.759108831131001    0.095809778918744  0.0000
  Si     Si        0.361886635777518    0.758409551553346    0.886533318900992  0.0000
  Si     Si        0.865605520044636    0.747626853667630    0.891987809348949  0.0000
  Si     Si        0.162809231324637    0.750775765769376    0.096818058564305  0.0000
  Si     Si        0.143870658600821    0.264799760483059    0.098068639959888  0.0000
  Si     Si        0.847913228102381    0.259208128314004    0.893080183392880  0.0000
  Si     Si        0.312537215055537    0.406101512532654    0.313913643831506  0.0000
  Si     Si        0.707475553122630    0.402911047000090    0.664064397618624  0.0000
  Si     Si        0.706504773440179    0.606404961254825    0.668449532467735  0.0000
  Si     Si        0.306655472754132    0.605921503967104    0.320092931895617  0.0000
  Si     Si        0.195830897835702    0.895493396014957    0.659602347912432  0.0000
  Si     Si        0.210896008925429    0.098551982631147    0.675226467316211  0.0000
  Si     Si        0.810083170948795    0.110387789333749    0.331954634110542  0.0000
  Si     Si        0.406535368777682    0.398817433416326    0.675003599352409  0.0000
  Si     Si        0.613329087868092    0.407727427014269    0.306147128306062  0.0000
  Si     Si        0.610520130056529    0.609579266078011    0.313465873962841  0.0000
  Si     Si        0.900146150366343    0.902372983025723    0.686673852970776  0.0000
  Si     Si        0.105531257074054    0.902907698880353    0.302598694608137  0.0000
  Si     Si        0.911973461374032    0.104651984236568    0.693685503461601  0.0000
  O3     O3        0.495391968621665    0.234617997666222    0.040605638784079  0.0000
  O2     O2        0.521384310145432    0.770229156020528    0.961322053813695  0.0000
  O2     O2        0.022811807948438    0.731267147513600    0.972240705216988  0.0000
  O2     O2        0.982691872605390    0.277522923958007    0.028002277874009  0.0000
  O3     O3        0.331242413875755    0.147577068109134    0.792104814829484  0.0000
  O2     O2        0.706046517623095    0.183298104028543    0.242637046312481  0.0000
  O3     O3        0.676530248627875    0.841017684974953    0.209231739510594  0.0000
  O2     O2        0.315434741921667    0.834544105388603    0.757893033043662  0.0000
  O2     O2        0.821206770197739    0.667223885591432    0.774344439596810  0.0000
  O2     O2        0.194437379607212    0.667824479176125    0.211539145952769  0.0000
  O2     O2        0.195949602824190    0.343655826414383    0.218282872139072  0.0000
  O2     O2        0.821269599381944    0.338940126852786    0.768671348383857  0.0000
  O3     O3        0.346097307733398    0.330157109910023    0.768507850270307  0.0000
  O2     O2        0.671735466016302    0.350513402168865    0.188030543761790  0.0000
  O2     O2        0.660409761756050    0.670364905292464    0.194570702620453  0.0000
  O3     O3        0.334497745288529    0.665411061297468    0.804108759274834  0.0000
  O2     O2        0.843445054342227    0.840444091203882    0.800690328241644  0.0000
  O2     O2        0.157943260839269    0.838834379669256    0.190717938001774  0.0000
  O3     O3        0.176199461490150    0.173717467814734    0.191274000702188  0.0000
  O2     O2        0.857660746654188    0.167654111061011    0.807116725857289  0.0000
  O3     O3        0.213417958041279    0.266837648160835    0.960924579908325  0.0000
  O2     O2        0.724321200191754    0.250951563234066    0.970792633245758  0.0000
  O2     O2        0.784028970346444    0.751456861367031    0.021094709368849  0.0000
  O2     O2        0.282967873951088    0.765183517948466    0.016989793815367  0.0000
  O2     O2        0.456450831609076    0.381476622719251    0.282523125043560  0.0000
  O2     O2        0.564424569810835    0.377493027981318    0.693213646312191  0.0000
  O3     O3        0.564521274278434    0.631442649093539    0.697866967019197  0.0000
  O2     O2        0.455922514660891    0.632006044952634    0.307112299339916  0.0000
  O3     O3        0.944088986791236    0.900741144373537    0.260669765931465  0.0000
  O2     O2        0.060500399162805    0.883584988380205    0.716321378424309  0.0000
  O2     O2        0.073065317702784    0.115737956319358    0.727605246441169  0.0000
  O3     O3        0.944991450898564    0.115272039149884    0.275583033235179  0.0000
  O2     O2        0.323509485318945    0.395857996943874    0.494980113868256  0.0000
  O2     O2        0.699216337887615    0.389495438298088    0.482870049149533  0.0000
  O2     O2        0.701976135893706    0.623810583502226    0.488404016663533  0.0000
  O3     O3        0.301967263690464    0.616033541059505    0.495245380802805  0.0000
  O3     O3        0.823792075527397    0.880537137783597    0.511824944633255  0.0000
  O2     O2        0.164757995043195    0.869773306047030    0.479903818059325  0.0000
  O3     O3        0.192180501878727    0.134657483606063    0.502775942969455  0.0000
  O2     O2        0.842375753238465    0.129052810343059    0.515749386173057  0.0000
  O2     O2        0.274393541035541    0.506207805045637    0.262850063180446  0.0000
  O2     O2        0.741859845742364    0.504035285566647    0.709655314806983  0.0000
  O3     O3        0.743358799872283    0.015721345692363    0.296974829931729  0.0000
  O2     O2        0.244250072830361    0.995474939950598    0.679309598798972  0.0000
  O3     O3        0.393586900079698    0.494958864041023    0.739696279771108  0.0000
  O2     O2        0.624119387442113    0.509344450707500    0.263180193389316  0.0000
  O2     O2        0.877089207858774    0.004032121509304    0.725728370436483  0.0000
  O3     O3        0.157422749448134    0.999514810278731    0.281786155429802  0.0000
