data_c00955.vasp
_audit_creation_method             Generated by GULP
_audit_author_name                 Salvador R. G. Balestra
_symmetry_space_group_name_H-M     'P 1             '
_symmetry_Int_Tables_number        1

loop_
_symmetry_equiv_pos_site_id
_symmetry_equiv_pos_as_xyz
_cell_length_a                       10.2116
_cell_length_b                       15.2345
_cell_length_c                        8.9787
_cell_angle_alpha                   90.2083
_cell_angle_beta                   105.3574
_cell_angle_gamma                   89.9239

loop_
_atom_site_label
_atom_site_type_symbol
_atom_site_fract_x
_atom_site_fract_y
_atom_site_fract_z
_atom_site_charge
  Ge     Ge        0.351599999999962    0.244500000000016    0.893900000000031  0.0000
  Ge     Ge        0.773391231088679    0.902623757251020    0.326007757088915  0.0000
  Ge     Ge        0.588901163011259    0.606770275171857    0.312029103700104  0.0000
  Ge     Ge        0.372270102899256    0.606632677410194    0.679477818424794  0.0000
  Si     Si        0.654267246495160    0.252138148814216    0.105665405677780  0.0000
  Si     Si        0.635588144197314    0.757896554910367    0.094573556669608  0.0000
  Si     Si        0.338404333942846    0.762637279859497    0.888741626071138  0.0000
  Si     Si        0.844429525991124    0.751930878327066    0.895565890625950  0.0000
  Si     Si        0.141845367979869    0.749760680795446    0.101421145846343  0.0000
  Si     Si        0.145811966556814    0.256184726593638    0.107379289863586  0.0000
  Si     Si        0.853266196198937    0.265010179578248    0.894493780467150  0.0000
  Si     Si        0.288534001688362    0.401956878959679    0.325987894400929  0.0000
  Si     Si        0.681172415992996    0.404019196659960    0.672258011567039  0.0000
  Si     Si        0.682192459759939    0.610150640185963    0.668136479706884  0.0000
  Si     Si        0.277935253143393    0.603318875841287    0.321551932659204  0.0000
  Si     Si        0.175109971774080    0.901572878949656    0.663747414960002  0.0000
  Si     Si        0.182383105238669    0.104501482254601    0.663522195869730  0.0000
  Si     Si        0.780819633542349    0.105297221167419    0.329786129548622  0.0000
  Si     Si        0.380884388281030    0.402595282605934    0.686269285729222  0.0000
  Si     Si        0.589944944124668    0.400122169196614    0.315416632730464  0.0000
  Si     Si        0.876109213438272    0.906183964264430    0.688417267186177  0.0000
  Si     Si        0.083519561352656    0.900423135344682    0.309700329385878  0.0000
  Si     Si        0.083807286589347    0.102213806662419    0.309222426807292  0.0000
  Si     Si        0.884075155289453    0.108462828095344    0.687474727536818  0.0000
  O3     O3        0.522885209636746    0.232165253889395    0.970647996134504  0.0000
  O2     O2        0.499227934065733    0.773307655082430    0.959721825483824  0.0000
  O2     O2        0.002231305867551    0.734824694962121    0.972827377073378  0.0000
  O2     O2        0.013069615336308    0.279264999940759    0.970882825344685  0.0000
  O3     O3        0.304263286174033    0.158534035583518    0.766534626362506  0.0000
  O2     O2        0.676664768298996    0.175202900660408    0.232129704881304  0.0000
  O3     O3        0.651101774903130    0.831829786182075    0.225163441846139  0.0000
  O2     O2        0.291614326385194    0.842492208717734    0.770381514883986  0.0000
  O2     O2        0.794241828341737    0.669161834313819    0.784390286786021  0.0000
  O2     O2        0.165509944572504    0.664081389612385    0.209270749428265  0.0000
  O2     O2        0.173718881200871    0.336089253938951    0.230984138163461  0.0000
  O2     O2        0.800553648754335    0.346502738365198    0.780387590277175  0.0000
  O3     O3        0.316728320109226    0.340117766449731    0.788492192531796  0.0000
  O2     O2        0.644551909542411    0.341714354251149    0.196604601355067  0.0000
  O3     O3        0.635919836944469    0.663464655216529    0.170928004570774  0.0000
  O3     O3        0.307081817189721    0.671664153234367    0.798235416021975  0.0000
  O2     O2        0.824095404771356    0.844083481933433    0.804561700571798  0.0000
  O2     O2        0.141045086830771    0.837971092401082    0.198947474401522  0.0000
  O2     O2        0.128939119066812    0.165038573622959    0.190181398766267  0.0000
  O2     O2        0.828602879829274    0.174097238483592    0.797074428670114  0.0000
  O3     O3        0.273192767265316    0.244241771557634    0.039468205133977  0.0000
  O2     O2        0.780448184657732    0.260083931378058    0.031193468655506  0.0000
  O2     O2        0.764781959340396    0.762233954075466    0.025345181293625  0.0000
  O2     O2        0.264821422243403    0.763128632872803    0.024787787596072  0.0000
  O2     O2        0.433124615386737    0.375286366596357    0.298781208794789  0.0000
  O2     O2        0.538183042303801    0.375773618309744    0.702456223964088  0.0000
  O3     O3        0.534628117761998    0.638116859706716    0.681207284722427  0.0000
  O3     O3        0.426062273807403    0.633550074712913    0.313682448538556  0.0000
  O3     O3        0.927145032603581    0.879725544714908    0.290672638841781  0.0000
  O2     O2        0.029967534923162    0.879277140874870    0.692493250348509  0.0000
  O2     O2        0.040888821213936    0.132064668048949    0.700483100936810  0.0000
  O2     O2        0.927066582219936    0.118107828195238    0.298356592892095  0.0000
  O2     O2        0.296236172342061    0.396609475294029    0.506775613635993  0.0000
  O2     O2        0.676782196186513    0.386919598983584    0.493122736594252  0.0000
  O3     O3        0.692705597388829    0.625644047504838    0.495381041654863  0.0000
  O3     O3        0.267172855809698    0.613430375669366    0.494732189316000  0.0000
  O3     O3        0.781474672061353    0.890873466393600    0.518946962159486  0.0000
  O2     O2        0.168779726095638    0.882200982167227    0.485712677832864  0.0000
  O2     O2        0.172312243222455    0.121504057867315    0.483321358570320  0.0000
  O2     O2        0.794144966506547    0.118915549857330    0.511734324730640  0.0000
  O2     O2        0.252744852913760    0.501461385627544    0.267916560915529  0.0000
  O2     O2        0.707395419030732    0.506955467131712    0.710603926418166  0.0000
  O3     O3        0.725927197238598    0.009369282266996    0.276863658246693  0.0000
  O2     O2        0.211776409802092    0.002463234640136    0.703461634403407  0.0000
  O3     O3        0.374715732005828    0.500804001678537    0.745769656514787  0.0000
  O3     O3        0.601157983380224    0.498611545871698    0.263984157225718  0.0000
  O2     O2        0.871160321249061    0.008055486975874    0.740090035198147  0.0000
  O2     O2        0.104053180912667    0.001241411619185    0.264535850363258  0.0000
