data_c01000.vasp
_audit_creation_method             Generated by GULP
_audit_author_name                 Salvador R. G. Balestra
_symmetry_space_group_name_H-M     'P 1             '
_symmetry_Int_Tables_number        1

loop_
_symmetry_equiv_pos_site_id
_symmetry_equiv_pos_as_xyz
_cell_length_a                       10.2317
_cell_length_b                       15.2120
_cell_length_c                        8.9627
_cell_angle_alpha                   90.6260
_cell_angle_beta                   105.3420
_cell_angle_gamma                   90.0756

loop_
_atom_site_label
_atom_site_type_symbol
_atom_site_fract_x
_atom_site_fract_y
_atom_site_fract_z
_atom_site_charge
  Ge     Ge        0.351599999999962    0.244500000000016    0.893900000000031  0.0000
  Ge     Ge        0.229970087635005    0.896545536637630    0.671146117723344  0.0000
  Ge     Ge        0.632394799635883    0.588359514342771    0.304175084796592  0.0000
  Ge     Ge        0.419169859924395    0.602318655591279    0.679542715916183  0.0000
  Si     Si        0.649527789144755    0.225994529192200    0.107321897416443  0.0000
  Si     Si        0.695482713370975    0.741833056227837    0.102584470777199  0.0000
  Si     Si        0.393427349438548    0.756570439367012    0.898613542871923  0.0000
  Si     Si        0.892970263751939    0.737124963196341    0.888030195925651  0.0000
  Si     Si        0.185537607804984    0.740280063584336    0.097279593283936  0.0000
  Si     Si        0.143333198607649    0.251537589332280    0.103813945469965  0.0000
  Si     Si        0.848816356765487    0.244731374939001    0.896427164903935  0.0000
  Si     Si        0.319173241029465    0.391396617048556    0.329051387377094  0.0000
  Si     Si        0.713403117431429    0.391934034214492    0.672832116986865  0.0000
  Si     Si        0.725482491397272    0.594046461077267    0.672940337277071  0.0000
  Si     Si        0.327945547099210    0.595461092944460    0.314038075021986  0.0000
  Si     Si        0.826621258562472    0.887053779750437    0.334511854640132  0.0000
  Si     Si        0.215020979263117    0.100924253603465    0.659476355317504  0.0000
  Si     Si        0.816595961279927    0.087939063582890    0.327405750618815  0.0000
  Si     Si        0.409131581766374    0.397439162031849    0.684315995387459  0.0000
  Si     Si        0.622704759193958    0.383297229829639    0.315715494315293  0.0000
  Si     Si        0.923812662390826    0.891926552251998    0.687180721651118  0.0000
  Si     Si        0.127756112666053    0.892253562848190    0.309828813447232  0.0000
  Si     Si        0.113900893984272    0.092175611028615    0.301232502377991  0.0000
  Si     Si        0.917822420908621    0.096022329923005    0.683934769732567  0.0000
  O3     O3        0.491392656207414    0.213473837437065    0.034640342657389  0.0000
  O2     O2        0.552787722414219    0.757131195711173    0.980361129434389  0.0000
  O2     O2        0.051360293727077    0.721209885662472    0.962164737843474  0.0000
  O2     O2        0.983360675736530    0.266381512477399    0.031030646652147  0.0000
  O3     O3        0.326668891199084    0.169583581400245    0.743765866413815  0.0000
  O2     O2        0.698285635177837    0.144967456237795    0.221269042886266  0.0000
  O2     O2        0.718702903772379    0.819372808497515    0.231920199501702  0.0000
  O3     O3        0.361301462973490    0.838854623247254    0.786107166623437  0.0000
  O2     O2        0.845752869603629    0.655390917702291    0.771629396527783  0.0000
  O2     O2        0.211150996567489    0.655898568314979    0.208066026935349  0.0000
  O2     O2        0.201533910439760    0.331562682885130    0.222398206267143  0.0000
  O2     O2        0.819627236089113    0.326935514455116    0.780785441966726  0.0000
  O3     O3        0.364519399142422    0.345069229180886    0.813966820271026  0.0000
  O2     O2        0.676553338588608    0.315924889869250    0.207690605861213  0.0000
  O3     O3        0.701541296384712    0.648961724773141    0.184774818374426  0.0000
  O3     O3        0.352486365503199    0.669444110950016    0.794261517159730  0.0000
  O2     O2        0.866625309652755    0.829990962481559    0.799754282112646  0.0000
  O2     O2        0.171153801255802    0.828659784016717    0.189751400148887  0.0000
  O2     O2        0.168059679758124    0.159017851972209    0.194045014297333  0.0000
  O2     O2        0.861544809096339    0.156146366733091    0.800756839062016  0.0000
  O3     O3        0.213208983791872    0.248149964809612    0.966559121808412  0.0000
  O2     O2        0.724462357766669    0.230116381058651    0.971160690130963  0.0000
  O2     O2        0.815719584710716    0.742813374838113    0.020362935955156  0.0000
  O2     O2        0.310819451553163    0.759346675348157    0.026999867931607  0.0000
  O2     O2        0.458918385077674    0.376283833615350    0.280643510970651  0.0000
  O2     O2        0.571264220790655    0.388851321348619    0.716444267757879  0.0000
  O3     O3        0.593615228735527    0.610278205022152    0.732960892254733  0.0000
  O3     O3        0.459595991930876    0.602692201327784    0.250778983795282  0.0000
  O2     O2        0.976343881585402    0.868541455386225    0.317343073589952  0.0000
  O3     O3        0.076922234662466    0.864361175252329    0.699524832744899  0.0000
  O2     O2        0.070700471768836    0.124946204670414    0.692660764890199  0.0000
  O2     O2        0.957417140481266    0.113165319471757    0.290245859893169  0.0000
  O2     O2        0.338304907147874    0.365537325871601    0.507765006577095  0.0000
  O2     O2        0.691682160856472    0.361855728945714    0.495137695797789  0.0000
  O3     O3        0.696726061913900    0.618565856375869    0.494515175870326  0.0000
  O3     O3        0.360369819379745    0.631117831296327    0.488110060070997  0.0000
  O2     O2        0.829836272275025    0.875359929257080    0.513618635145105  0.0000
  O3     O3        0.227237155389965    0.881973163935888    0.478591859262021  0.0000
  O2     O2        0.202103911091438    0.103097839809730    0.476864556883607  0.0000
  O2     O2        0.826125014757729    0.106201803922099    0.507945204045608  0.0000
  O2     O2        0.278389900831729    0.493775275186371    0.306543793276661  0.0000
  O2     O2        0.770104226992595    0.491559874540983    0.694725108128339  0.0000
  O2     O2        0.781124308099556    0.986065489586758    0.284250786123436  0.0000
  O3     O3        0.258851283807429    0.005088605607361    0.722824001303629  0.0000
  O3     O3        0.368596431598204    0.497205433690143    0.702817285934855  0.0000
  O3     O3        0.665676290875430    0.479195713272138    0.277752227908995  0.0000
  O2     O2        0.915509057766423    0.994339223627639    0.734528195174917  0.0000
  O2     O2        0.130747297981294    0.992035829156715    0.247996478365568  0.0000
