data_c01042.vasp
_audit_creation_method             Generated by GULP
_audit_author_name                 Salvador R. G. Balestra
_symmetry_space_group_name_H-M     'P 1             '
_symmetry_Int_Tables_number        1

loop_
_symmetry_equiv_pos_site_id
_symmetry_equiv_pos_as_xyz
_cell_length_a                       10.2295
_cell_length_b                       15.2006
_cell_length_c                        8.9854
_cell_angle_alpha                   89.4155
_cell_angle_beta                   105.3291
_cell_angle_gamma                   89.9873

loop_
_atom_site_label
_atom_site_type_symbol
_atom_site_fract_x
_atom_site_fract_y
_atom_site_fract_z
_atom_site_charge
  Ge     Ge        0.351599999999962    0.244500000000016    0.893900000000031  0.0000
  Ge     Ge        0.209143347229222    0.097439273860958    0.668184280132785  0.0000
  Ge     Ge        0.394472627905148    0.602631309495459    0.675447067427614  0.0000
  Ge     Ge        0.097674481313454    0.903660080320995    0.292842916569803  0.0000
  Si     Si        0.650639068579661    0.254813414352488    0.107365266969421  0.0000
  Si     Si        0.633049666164199    0.767220544656566    0.096581943759772  0.0000
  Si     Si        0.338989316821575    0.752787820537777    0.886464228215999  0.0000
  Si     Si        0.835344909545336    0.750684745482979    0.885753039976865  0.0000
  Si     Si        0.134082405685161    0.747706476624644    0.087754013050128  0.0000
  Si     Si        0.135509965697586    0.263542655846407    0.089979773136617  0.0000
  Si     Si        0.840078164331689    0.258908280213540    0.884696923791359  0.0000
  Si     Si        0.307075156301965    0.405014152030408    0.306970391787684  0.0000
  Si     Si        0.699603729265393    0.402606395776364    0.656848528191162  0.0000
  Si     Si        0.701441087486295    0.605895275370078    0.662149791031585  0.0000
  Si     Si        0.299532102434677    0.608147427400441    0.317468606790717  0.0000
  Si     Si        0.793468196564972    0.908951725913022    0.314705636404648  0.0000
  Si     Si        0.193592440019205    0.890670445045611    0.650916584853687  0.0000
  Si     Si        0.809783300798242    0.108797358764905    0.330803164619755  0.0000
  Si     Si        0.397220377758110    0.395980885866630    0.664374716462083  0.0000
  Si     Si        0.609497177257532    0.409871037352962    0.299596161205559  0.0000
  Si     Si        0.605451577308403    0.611559455368536    0.308520682882187  0.0000
  Si     Si        0.894680449701380    0.902168636458003    0.674586756562556  0.0000
  Si     Si        0.112500549730267    0.109275162986055    0.309914376592089  0.0000
  Si     Si        0.903494996163306    0.104151747858900    0.688649721157829  0.0000
  O3     O3        0.492073479162741    0.239295168611749    0.045485536669418  0.0000
  O2     O2        0.475208773548544    0.780199552426668    0.012582487426523  0.0000
  O2     O2        0.974212485150825    0.734706208897436    0.015314755026408  0.0000
  O2     O2        0.976126269706271    0.280180950303485    0.014904208098043  0.0000
  O1     O1        0.339578746892694    0.150737143715021    0.788304367429019  0.0000
  O2     O2        0.706098042249049    0.178858925110520    0.232376137225429  0.0000
  O2     O2        0.674810126520794    0.848632335568189    0.212569662744694  0.0000
  O2     O2        0.307746367907213    0.825504384719000    0.750450175118022  0.0000
  O2     O2        0.813537407040485    0.667252898840059    0.772334304911224  0.0000
  O2     O2        0.185142260512219    0.668241845700086    0.207978808126029  0.0000
  O2     O2        0.192413374343557    0.345833243003488    0.199202333058393  0.0000
  O2     O2        0.813398951608839    0.337632105990547    0.757942785996756  0.0000
  O3     O3        0.338643875932783    0.332395136980247    0.769423662645373  0.0000
  O2     O2        0.673544780787568    0.350102998877656    0.189981505305986  0.0000
  O2     O2        0.657486698030846    0.676536325317221    0.195325082439586  0.0000
  O3     O3        0.348606870542729    0.658001743281023    0.817811299076765  0.0000
  O2     O2        0.837108134868846    0.838931311134669    0.785442150673345  0.0000
  O3     O3        0.159316412980971    0.841007563066484    0.169918781109689  0.0000
  O2     O2        0.157785966143903    0.174149032522388    0.191501524416549  0.0000
  O2     O2        0.845985572377885    0.166190635934804    0.801037072117471  0.0000
  O3     O3        0.207365580030199    0.254033939178671    0.956250350073848  0.0000
  O2     O2        0.717512978024243    0.253206313902341    0.965198592384723  0.0000
  O2     O2        0.715703940892350    0.762046053465140    0.968605708269032  0.0000
  O2     O2        0.211891127448851    0.747574035792897    0.956883335296593  0.0000
  O2     O2        0.451662900564203    0.384648718459941    0.273637679796316  0.0000
  O2     O2        0.556245659794186    0.375877643127500    0.685274722642486  0.0000
  O3     O3        0.558218890557238    0.632393676286190    0.685736033171268  0.0000
  O2     O2        0.449299406879146    0.632464318225548    0.301196464396572  0.0000
  O3     O3        0.923736242488788    0.896327718775840    0.251342388766896  0.0000
  O2     O2        0.055800549424891    0.888971731981972    0.707865838953671  0.0000
  O3     O3        0.063663772038247    0.114200976182490    0.727937621408872  0.0000
  O2     O2        0.949908361218983    0.111674543820177    0.283323806136195  0.0000
  O2     O2        0.316186246263249    0.384668824588407    0.485172504031016  0.0000
  O2     O2        0.692304544857742    0.392596952042003    0.476567065667149  0.0000
  O2     O2        0.698185264435883    0.622612417452587    0.482861226470108  0.0000
  O3     O3        0.295008596982373    0.623419674630194    0.491172854734326  0.0000
  O2     O2        0.824060071417414    0.881753382715960    0.495321349645336  0.0000
  O3     O3        0.162252561986598    0.861296854505487    0.476004471309846  0.0000
  O3     O3        0.184269738936937    0.137551462320000    0.482027581381302  0.0000
  O2     O2        0.835376088633680    0.131336319770321    0.510796309835996  0.0000
  O2     O2        0.267962876711259    0.506808527162263    0.270066486882663  0.0000
  O2     O2        0.735293819485650    0.503413838416281    0.706421913998516  0.0000
  O2     O2        0.746778374200382    0.011211543216537    0.296987540578448  0.0000
  O3     O3        0.251130156958148    0.988361509441645    0.667884863971896  0.0000
  O3     O3        0.381054757194551    0.493789464008959    0.718440265993224  0.0000
  O2     O2        0.620504117149563    0.511920459991082    0.253937742791854  0.0000
  O2     O2        0.865410430431221    0.002577708055000    0.714600613899051  0.0000
  O3     O3        0.151227028932340    0.010097511124105    0.279740154579937  0.0000
