data_c01004.vasp
_audit_creation_method             Generated by GULP
_audit_author_name                 Salvador R. G. Balestra
_symmetry_space_group_name_H-M     'P 1             '
_symmetry_Int_Tables_number        1

loop_
_symmetry_equiv_pos_site_id
_symmetry_equiv_pos_as_xyz
_cell_length_a                       10.2473
_cell_length_b                       15.2316
_cell_length_c                        8.9663
_cell_angle_alpha                   90.0750
_cell_angle_beta                   105.2437
_cell_angle_gamma                   89.7696

loop_
_atom_site_label
_atom_site_type_symbol
_atom_site_fract_x
_atom_site_fract_y
_atom_site_fract_z
_atom_site_charge
  Ge     Ge        0.351599999999962    0.244500000000016    0.893900000000031  0.0000
  Ge     Ge        0.193111030146052    0.895497585166485    0.666338395644291  0.0000
  Ge     Ge        0.599294396047443    0.598568337116184    0.313410440692697  0.0000
  Ge     Ge        0.887830629557714    0.100138549667364    0.690746665158723  0.0000
  Si     Si        0.652130342073435    0.242518428310352    0.107401024028715  0.0000
  Si     Si        0.636878619892733    0.754534211147655    0.107265615990620  0.0000
  Si     Si        0.340380713879565    0.753574590408510    0.897750397390710  0.0000
  Si     Si        0.832976272764816    0.742437538794993    0.892642260164296  0.0000
  Si     Si        0.130088802125085    0.744776716273568    0.098970766200750  0.0000
  Si     Si        0.145496299784417    0.255674974809264    0.107721000209467  0.0000
  Si     Si        0.851658656402836    0.256542571709018    0.901275265457796  0.0000
  Si     Si        0.286334219496799    0.401345740506740    0.328540060941199  0.0000
  Si     Si        0.679481183056154    0.394362436306892    0.675562458507860  0.0000
  Si     Si        0.689958526923050    0.596799571163430    0.674259106610749  0.0000
  Si     Si        0.290271738855326    0.604641344019878    0.327376916480748  0.0000
  Si     Si        0.793944667584756    0.896736281193258    0.329571097086474  0.0000
  Si     Si        0.188485978024943    0.102891809367036    0.666350303647400  0.0000
  Si     Si        0.785283446912732    0.096656111039785    0.330865416253061  0.0000
  Si     Si        0.378912556371541    0.400974350145867    0.685557078342254  0.0000
  Si     Si        0.588501187384600    0.393942641149620    0.316542026270185  0.0000
  Si     Si        0.386613266812704    0.603926032565586    0.681340089123697  0.0000
  Si     Si        0.892184848660844    0.892325775772288    0.685461997759760  0.0000
  Si     Si        0.093713952618875    0.899694416587663    0.304876180291681  0.0000
  Si     Si        0.086458092221835    0.100077180416756    0.311569871380700  0.0000
  O3     O3        0.521765477838549    0.228025957371121    0.969963257200034  0.0000
  O2     O2        0.477561821841621    0.765386676584958    0.030898861534964  0.0000
  O2     O2        0.975379257107985    0.725741174841375    0.013985038871665  0.0000
  O2     O2        0.011159293893157    0.274270015088000    0.971470347120953  0.0000
  O3     O3        0.308770672563645    0.162704289704582    0.758596284880239  0.0000
  O2     O2        0.675089020273162    0.157530026201348    0.217870613512066  0.0000
  O2     O2        0.680893855595445    0.832266608925200    0.231742347262394  0.0000
  O3     O3        0.321909254586690    0.833054642303895    0.778448585409790  0.0000
  O2     O2        0.802331699840517    0.655583021963161    0.787817543773857  0.0000
  O2     O2        0.176553319242191    0.667135230788610    0.222825302641247  0.0000
  O2     O2        0.172297861832936    0.338736573192800    0.224443029665702  0.0000
  O2     O2        0.795561017210279    0.331942269724338    0.774707074061568  0.0000
  O3     O3        0.319044264197769    0.344901711232044    0.799984390143338  0.0000
  O2     O2        0.640162552526702    0.327231629398653    0.208539843005906  0.0000
  O3     O3        0.664833652438555    0.662180583378861    0.193840581532069  0.0000
  O2     O2        0.338385225337134    0.662912504494484    0.803995234599019  0.0000
  O2     O2        0.829304039453582    0.828716131409454    0.789960274666219  0.0000
  O2     O2        0.142912853165086    0.838925639189518    0.183825115412907  0.0000
  O2     O2        0.130867375490524    0.166472559762183    0.197252267511898  0.0000
  O3     O3        0.827583019090946    0.162961385765088    0.817339119119880  0.0000
  O3     O3        0.270880684362940    0.240350685201798    0.037616129451501  0.0000
  O2     O2        0.780372975483067    0.258813745065488    0.039702164174720  0.0000
  O2     O2        0.716953499170352    0.759550863029324    0.977958133345753  0.0000
  O2     O2        0.216472548084062    0.749250040306227    0.975045147044848  0.0000
  O2     O2        0.429256003591945    0.378569077118876    0.295228597376030  0.0000
  O2     O2        0.535609133721084    0.372044594363027    0.707978628954689  0.0000
  O2     O2        0.541758074621619    0.624428471944389    0.689184163471115  0.0000
  O3     O3        0.432672972680404    0.626067350317966    0.295619223203085  0.0000
  O2     O2        0.940947971006348    0.873950192771306    0.305948996176211  0.0000
  O3     O3        0.041464339495654    0.859255975303810    0.691603739989393  0.0000
  O3     O3        0.048322852443582    0.136253236579782    0.695814361481184  0.0000
  O2     O2        0.934769432592178    0.121292166340080    0.318096964202272  0.0000
  O2     O2        0.295368220736754    0.384365043956059    0.508179175425016  0.0000
  O2     O2        0.670054296893089    0.379840907116876    0.495027037843169  0.0000
  O3     O3        0.695339633464743    0.612405309422808    0.500738937113824  0.0000
  O2     O2        0.296750261513041    0.622855244415651    0.507321584768169  0.0000
  O2     O2        0.798800577109378    0.887515114623242    0.509448951038717  0.0000
  O3     O3        0.191569319607453    0.886473467120699    0.473816563628998  0.0000
  O2     O2        0.182878668178858    0.107718903755899    0.484178992087672  0.0000
  O3     O3        0.781854211436431    0.109659418330644    0.506259145320268  0.0000
  O2     O2        0.250295237593344    0.503069332176730    0.286686542900066  0.0000
  O2     O2        0.718794773158000    0.494906901706154    0.720728731004637  0.0000
  O2     O2        0.751944401046037    0.996171482583575    0.276847881401589  0.0000
  O3     O3        0.214900386167610    0.003213636987048    0.722913384833126  0.0000
  O2     O2        0.370648195936806    0.503282022148765    0.726460601346617  0.0000
  O3     O3        0.611211672526414    0.490640125446776    0.261932809766412  0.0000
  O3     O3        0.894176648946842    0.991342454087777    0.745764244019230  0.0000
  O2     O2        0.097126332387591    0.000934935828645    0.250576118286495  0.0000
