data_c01088.vasp
_audit_creation_method             Generated by GULP
_audit_author_name                 Salvador R. G. Balestra
_symmetry_space_group_name_H-M     'P 1             '
_symmetry_Int_Tables_number        1

loop_
_symmetry_equiv_pos_site_id
_symmetry_equiv_pos_as_xyz
_cell_length_a                       10.2096
_cell_length_b                       15.2619
_cell_length_c                        8.9762
_cell_angle_alpha                   90.2856
_cell_angle_beta                   105.4180
_cell_angle_gamma                   89.2267

loop_
_atom_site_label
_atom_site_type_symbol
_atom_site_fract_x
_atom_site_fract_y
_atom_site_fract_z
_atom_site_charge
  Ge     Ge        0.351599999999962    0.244500000000016    0.893900000000031  0.0000
  Ge     Ge        0.375000751149284    0.403979142413407    0.675879117526576  0.0000
  Ge     Ge        0.586615052133657    0.610545310523757    0.305794847628044  0.0000
  Ge     Ge        0.089665202382044    0.108814360864588    0.313861417844252  0.0000
  Si     Si        0.653530424944780    0.253621614540112    0.098553032718780  0.0000
  Si     Si        0.618679277614162    0.767063971357330    0.096060862377219  0.0000
  Si     Si        0.320628860000116    0.759138876912252    0.889679130508466  0.0000
  Si     Si        0.817387377794590    0.752456350012618    0.884370877865036  0.0000
  Si     Si        0.114988129059961    0.748054615375561    0.096456314865232  0.0000
  Si     Si        0.147030134853897    0.263262603470783    0.099841143432021  0.0000
  Si     Si        0.852908710181556    0.262574978270188    0.888265993394981  0.0000
  Si     Si        0.281553415604550    0.409268014489171    0.314875367990374  0.0000
  Si     Si        0.682595137765367    0.401545169661602    0.662688544999136  0.0000
  Si     Si        0.681923303605265    0.604439830561522    0.664906479077701  0.0000
  Si     Si        0.280462266690819    0.611168123476034    0.321859947448227  0.0000
  Si     Si        0.777625720272749    0.908180841397034    0.318879848531383  0.0000
  Si     Si        0.172453506302445    0.897950199652592    0.658742665007813  0.0000
  Si     Si        0.182686957561230    0.101325682706005    0.671285713181939  0.0000
  Si     Si        0.779227578811001    0.109032695271589    0.328039353222234  0.0000
  Si     Si        0.585694105895727    0.404510192040887    0.305324713571191  0.0000
  Si     Si        0.377739755590361    0.608059561383868    0.677818725452150  0.0000
  Si     Si        0.872717575048237    0.903155058474373    0.675751355637906  0.0000
  Si     Si        0.081812028937212    0.902580526916506    0.303789755602845  0.0000
  Si     Si        0.877151066246999    0.105124184307386    0.682827388227214  0.0000
  O3     O3        0.525687660997730    0.237014381001028    0.957109338757100  0.0000
  O2     O2        0.458911346752184    0.779116756819609    0.017681147534264  0.0000
  O2     O2        0.958225759742204    0.735302797136293    0.010042331925001  0.0000
  O2     O2        0.013240927399748    0.276670253340414    0.958771703435081  0.0000
  O3     O3        0.299375969215655    0.150086548510050    0.791954522926555  0.0000
  O2     O2        0.669506836745376    0.174553523739698    0.221398887622149  0.0000
  O2     O2        0.662466911563103    0.846821226376671    0.216604809514747  0.0000
  O2     O2        0.288556160398062    0.838157923645139    0.767249480009975  0.0000
  O2     O2        0.790442280146388    0.666175589437403    0.777924094968942  0.0000
  O2     O2        0.158267915486025    0.669847386443241    0.219656918935108  0.0000
  O2     O2        0.164604065628989    0.349174576508070    0.209185992697046  0.0000
  O2     O2        0.801201280359677    0.340213387237597    0.765652124933373  0.0000
  O1     O1        0.306864984923306    0.335958988858645    0.781973832310173  0.0000
  O2     O2        0.637846397509922    0.343360232831287    0.187171743960392  0.0000
  O3     O3        0.648394003403091    0.675834909900568    0.185928607976396  0.0000
  O2     O2        0.329823714223105    0.670459370241220    0.796889551619707  0.0000
  O2     O2        0.816212508149314    0.839663522535948    0.784037027837099  0.0000
  O2     O2        0.134681688680351    0.839926126062092    0.187908672840962  0.0000
  O3     O3        0.140906383852302    0.173803497527630    0.188207162963320  0.0000
  O2     O2        0.827233765779537    0.168680283110709    0.800534835039404  0.0000
  O3     O3        0.282244339571249    0.254336321896159    0.045528806869920  0.0000
  O2     O2        0.782834386070540    0.262528490620253    0.028427565900828  0.0000
  O2     O2        0.698035181439721    0.768719179189375    0.965494463754205  0.0000
  O2     O2        0.201876687676604    0.747407168552832    0.972805512049746  0.0000
  O2     O2        0.430731012792113    0.381441240274865    0.299396756577704  0.0000
  O3     O3        0.541602189487240    0.372951360082670    0.690951931594896  0.0000
  O2     O2        0.530995488925156    0.629559615956703    0.675624469988214  0.0000
  O3     O3        0.421752631190862    0.642209430135467    0.296314619540944  0.0000
  O2     O2        0.921261849195888    0.888635663220127    0.282969884163443  0.0000
  O2     O2        0.029355970128772    0.878108787227428    0.694116258593777  0.0000
  O2     O2        0.033955995757009    0.124738346557541    0.693736278528557  0.0000
  O3     O3        0.922171039476838    0.130714934198873    0.299478188162000  0.0000
  O3     O3        0.276944985490096    0.396015034420477    0.488395124725433  0.0000
  O2     O2        0.677414739600351    0.391715017890206    0.481306632874012  0.0000
  O3     O3        0.688876464402555    0.619571794182495    0.491903568953828  0.0000
  O2     O2        0.282876639099653    0.618820329636677    0.502725673938474  0.0000
  O2     O2        0.787635529577759    0.890119075284503    0.498466875089816  0.0000
  O2     O2        0.162833083823915    0.878552768503901    0.479753300199129  0.0000
  O3     O3        0.184705498847929    0.128246151125704    0.499948218395953  0.0000
  O2     O2        0.786198401958239    0.123327324358534    0.508748028238116  0.0000
  O2     O2        0.254067850869850    0.510766095969749    0.266199246580016  0.0000
  O2     O2        0.713543436615306    0.502731102261629    0.712548759618433  0.0000
  O2     O2        0.735989217565610    0.009371261530069    0.279889330682884  0.0000
  O2     O2        0.211527881155366    0.998056386215991    0.695386616382325  0.0000
  O3     O3        0.370124659587596    0.510787027529787    0.737497483680552  0.0000
  O3     O3        0.592988931898093    0.502850945026609    0.249399331993662  0.0000
  O2     O2        0.859802467637078    0.004105856943413    0.727487861985196  0.0000
  O3     O3        0.109861620833772    0.000796555624373    0.265292562887428  0.0000
