data_c01047.vasp
_audit_creation_method             Generated by GULP
_audit_author_name                 Salvador R. G. Balestra
_symmetry_space_group_name_H-M     'P 1             '
_symmetry_Int_Tables_number        1

loop_
_symmetry_equiv_pos_site_id
_symmetry_equiv_pos_as_xyz
_cell_length_a                       10.2133
_cell_length_b                       15.1795
_cell_length_c                        9.0033
_cell_angle_alpha                   90.2190
_cell_angle_beta                   105.2148
_cell_angle_gamma                   90.0048

loop_
_atom_site_label
_atom_site_type_symbol
_atom_site_fract_x
_atom_site_fract_y
_atom_site_fract_z
_atom_site_charge
  Ge     Ge        0.351599999999962    0.244500000000016    0.893900000000031  0.0000
  Ge     Ge        0.212010157513690    0.100655999243838    0.652427846261315  0.0000
  Ge     Ge        0.902667129403774    0.893962584678949    0.679638245710588  0.0000
  Ge     Ge        0.905640642032022    0.108611889145039    0.676840795549111  0.0000
  Si     Si        0.650345324803609    0.243019337249575    0.105935776246638  0.0000
  Si     Si        0.660537610454206    0.748325644751038    0.094637413386783  0.0000
  Si     Si        0.364756973051920    0.753950913017956    0.881863543625263  0.0000
  Si     Si        0.862597988182331    0.739488357938096    0.886889370437529  0.0000
  Si     Si        0.161044103830719    0.738271430309569    0.091262108195922  0.0000
  Si     Si        0.136348166044163    0.252080164685019    0.096824207212028  0.0000
  Si     Si        0.842095366511651    0.259946104605130    0.891463067969513  0.0000
  Si     Si        0.307918794184777    0.391446973831373    0.326351947274217  0.0000
  Si     Si        0.702126681463434    0.400878398013489    0.668442281023323  0.0000
  Si     Si        0.699693478101767    0.603034512607353    0.656704626926345  0.0000
  Si     Si        0.302136046193873    0.594500478684918    0.316984561644491  0.0000
  Si     Si        0.804289306914848    0.893587012474842    0.319532556607056  0.0000
  Si     Si        0.201695083966623    0.890651964730991    0.657851028320437  0.0000
  Si     Si        0.810366050141710    0.095003696084013    0.323645583870876  0.0000
  Si     Si        0.401358786573253    0.398636036460051    0.681125374810337  0.0000
  Si     Si        0.610824589911091    0.395447611438895    0.313059171428852  0.0000
  Si     Si        0.605511604015617    0.596546869961617    0.303041178157747  0.0000
  Si     Si        0.397700664135463    0.602873063704564    0.668739553914815  0.0000
  Si     Si        0.108166564841073    0.891088135506972    0.303403401672343  0.0000
  Si     Si        0.115083657944543    0.091322912668063    0.301456153470345  0.0000
  O3     O3        0.491496718666248    0.227881294414269    0.044515524210093  0.0000
  O2     O2        0.520940619452712    0.768319902421639    0.970063915607323  0.0000
  O2     O2        0.020034982389468    0.721911393472862    0.966989954730146  0.0000
  O2     O2        0.979777815305070    0.277085848763037    0.023400709532601  0.0000
  O1     O1        0.341922260592527    0.160896738159950    0.764500027754092  0.0000
  O2     O2        0.716118695771539    0.158095339267413    0.200309246405488  0.0000
  O2     O2        0.693019792566410    0.831093145095649    0.210058913305459  0.0000
  O2     O2        0.324806678807398    0.833938138981193    0.762145056588399  0.0000
  O2     O2        0.815947525074007    0.665711536778338    0.754423026221023  0.0000
  O2     O2        0.190396146600534    0.654557877129145    0.204614472966647  0.0000
  O2     O2        0.197885984676673    0.325496346675330    0.225486171191977  0.0000
  O2     O2        0.820552275875646    0.340010457148899    0.769057292672243  0.0000
  O3     O3        0.347712164071724    0.344872691816143    0.802269096442087  0.0000
  O2     O2        0.676073007168897    0.330176527833116    0.213137604495758  0.0000
  O2     O2        0.654533138611009    0.658832358911709    0.186780254251447  0.0000
  O2     O2        0.342271094881077    0.662603154042568    0.785847459306288  0.0000
  O3     O3        0.840174066260226    0.833810173680696    0.807550529958249  0.0000
  O2     O2        0.158448586584189    0.826369803848956    0.189866756179279  0.0000
  O2     O2        0.144411904580219    0.155440109394444    0.173390267102560  0.0000
  O3     O3        0.842414741635610    0.168905561056990    0.804274208504046  0.0000
  O3     O3        0.210135487473100    0.245937566242205    0.963664456188011  0.0000
  O2     O2        0.715070106227332    0.259075495598252    0.965026903603501  0.0000
  O2     O2        0.779422185707138    0.732714446624508    0.013251274798041  0.0000
  O2     O2        0.277804948775347    0.751576788157683    0.005337403880137  0.0000
  O2     O2        0.451387249758741    0.374481189711541    0.287984244221096  0.0000
  O2     O2        0.559831603894614    0.376782216335791    0.703545078610315  0.0000
  O2     O2        0.554906396491876    0.626690490655256    0.686343207245895  0.0000
  O2     O2        0.447177514795009    0.612937682125968    0.285526816046338  0.0000
  O2     O2        0.953411954312751    0.869695078859256    0.300973040418691  0.0000
  O3     O3        0.062037193379902    0.854453671261624    0.682007521961296  0.0000
  O1     O1        0.064272643825148    0.144205667296242    0.678264282120876  0.0000
  O2     O2        0.969301867425761    0.109589605065924    0.334300146776139  0.0000
  O2     O2        0.320285100558567    0.373402193236472    0.505851692333795  0.0000
  O2     O2        0.691351165600602    0.381832434299156    0.489980911025889  0.0000
  O2     O2        0.691611102421154    0.616667732896571    0.477098560142171  0.0000
  O2     O2        0.310205804277540    0.619497071131684    0.493690414817024  0.0000
  O3     O3        0.800346172053475    0.882271365975778    0.493902711125411  0.0000
  O2     O2        0.201513369177557    0.882461023226962    0.477612159207140  0.0000
  O3     O3        0.222388000930928    0.106096183751260    0.463570654316521  0.0000
  O3     O3        0.795783150486080    0.113321529198891    0.492825372598217  0.0000
  O2     O2        0.261468305155808    0.492096085049236    0.285527780190264  0.0000
  O2     O2        0.739039275018049    0.502758749795176    0.706573762028578  0.0000
  O2     O2        0.768414776256993    0.994916304326249    0.270373632583423  0.0000
  O3     O3        0.219321644773406    0.991758350406063    0.708122378060824  0.0000
  O2     O2        0.382543644567943    0.501707811113331    0.711587513650909  0.0000
  O2     O2        0.628530897409237    0.495280080374986    0.260823765769222  0.0000
  O1     O1        0.910091165134398    0.001080788071533    0.735517265834046  0.0000
  O2     O2        0.120624176930751    0.990496023495330    0.243474196665941  0.0000
