data_c01043.vasp
_audit_creation_method             Generated by GULP
_audit_author_name                 Salvador R. G. Balestra
_symmetry_space_group_name_H-M     'P 1             '
_symmetry_Int_Tables_number        1

loop_
_symmetry_equiv_pos_site_id
_symmetry_equiv_pos_as_xyz
_cell_length_a                       10.2356
_cell_length_b                       15.2429
_cell_length_c                        8.9372
_cell_angle_alpha                   89.4395
_cell_angle_beta                   105.3813
_cell_angle_gamma                   89.5980

loop_
_atom_site_label
_atom_site_type_symbol
_atom_site_fract_x
_atom_site_fract_y
_atom_site_fract_z
_atom_site_charge
  Ge     Ge        0.351599999999962    0.244500000000016    0.893900000000031  0.0000
  Ge     Ge        0.211883857624561    0.093110813535984    0.680841474243435  0.0000
  Ge     Ge        0.397461087358755    0.599389889925489    0.687330403422553  0.0000
  Ge     Ge        0.112104352263681    0.109351482837267    0.307434303264759  0.0000
  Si     Si        0.649400116987665    0.254911576747233    0.112579922926689  0.0000
  Si     Si        0.659183876151041    0.764078835154066    0.097543976906806  0.0000
  Si     Si        0.361671914050118    0.754309396315655    0.893081315948929  0.0000
  Si     Si        0.861138170112382    0.744460283220823    0.886122888301127  0.0000
  Si     Si        0.155264488923788    0.751389421665336    0.095027255649817  0.0000
  Si     Si        0.139256631140348    0.265714940785788    0.089481884325663  0.0000
  Si     Si        0.840382971863885    0.255285008218634    0.890050039867755  0.0000
  Si     Si        0.307393076749337    0.408291824504199    0.304559435679167  0.0000
  Si     Si        0.700647271136688    0.400172044256760    0.660845057594141  0.0000
  Si     Si        0.702898210524481    0.603011614900682    0.668588694408982  0.0000
  Si     Si        0.303271599338170    0.608693220060148    0.324204718849378  0.0000
  Si     Si        0.797350844334695    0.910818836055285    0.318273395374515  0.0000
  Si     Si        0.196124737188737    0.888256439514833    0.653277776486447  0.0000
  Si     Si        0.809182643083496    0.109659702517505    0.329655053287959  0.0000
  Si     Si        0.398180920834486    0.395199436680812    0.665302783358286  0.0000
  Si     Si        0.610861566991903    0.410605187772532    0.301629902055999  0.0000
  Si     Si        0.607641691026742    0.611731548542048    0.313073263697432  0.0000
  Si     Si        0.895042100761518    0.899584429902917    0.676035590124506  0.0000
  Si     Si        0.099930466282817    0.904399607851939    0.298889018865935  0.0000
  Si     Si        0.907546895547450    0.100572241062868    0.695145429226778  0.0000
  O3     O3        0.490156647775598    0.244632128373962    0.048225623779200  0.0000
  O2     O2        0.516932525140616    0.779367680283638    0.971738207474387  0.0000
  O2     O2        0.018277406027615    0.727701515743044    0.968516024636245  0.0000
  O2     O2        0.976728248029950    0.274154858080668    0.022195172182499  0.0000
  O1     O1        0.341547435114874    0.146019046502675    0.803628554681916  0.0000
  O2     O2        0.696632423374077    0.179843070828738    0.243302151882663  0.0000
  O2     O2        0.687823401034775    0.848266522064959    0.209066696040539  0.0000
  O2     O2        0.305463225612859    0.818337665998771    0.745732427073553  0.0000
  O2     O2        0.819482386488621    0.661607407638740    0.775120407021397  0.0000
  O2     O2        0.190287547587209    0.672678873047812    0.219639565858481  0.0000
  O2     O2        0.191553486600337    0.348239331770200    0.201170529228593  0.0000
  O2     O2        0.813658402760275    0.334662319411926    0.763829183833478  0.0000
  O3     O3        0.336177398642134    0.325618574459988    0.755816430100073  0.0000
  O2     O2        0.675775853813017    0.350856327707941    0.191879298265686  0.0000
  O2     O2        0.657991337424728    0.676684795259434    0.199391786244295  0.0000
  O3     O3        0.347976261519724    0.656934415611512    0.827496235202065  0.0000
  O2     O2        0.838177710145726    0.834353374595146    0.784960075785577  0.0000
  O2     O2        0.138314365554684    0.842604644588433    0.174400740882971  0.0000
  O3     O3        0.175686346969359    0.176599023345509    0.189691613632957  0.0000
  O2     O2        0.844514980971222    0.163657809044769    0.802132462250465  0.0000
  O3     O3        0.205757569680337    0.264232225261375    0.949808243436298  0.0000
  O2     O2        0.718483252976505    0.248497701260901    0.971712434724192  0.0000
  O2     O2        0.777089311228243    0.751257774105147    0.012875907744181  0.0000
  O2     O2        0.277425343523401    0.765398726066042    0.017960440702596  0.0000
  O2     O2        0.452603242768274    0.386397917057059    0.273376645968838  0.0000
  O2     O2        0.556975222941081    0.373626310687459    0.687361350106664  0.0000
  O3     O3        0.561499768351805    0.629691519503743    0.698279386040460  0.0000
  O2     O2        0.452453810469927    0.633080821462896    0.307903325010789  0.0000
  O2     O2        0.938307335424240    0.905034953202666    0.272595673754829  0.0000
  O2     O2        0.055509294394968    0.883540276313254    0.703020168795360  0.0000
  O3     O3        0.067654623494612    0.109099885108524    0.744989196186113  0.0000
  O3     O3        0.938033950844630    0.121157449520057    0.263890237388785  0.0000
  O2     O2        0.317127233778653    0.391913401134556    0.484578471229644  0.0000
  O2     O2        0.693463051730001    0.391391925071174    0.479353028549018  0.0000
  O2     O2        0.699258725251559    0.621021495419740    0.488799891806301  0.0000
  O3     O3        0.299565682833056    0.618083140872939    0.500254602969008  0.0000
  O2     O2        0.817246967256352    0.881777561482986    0.497090770569869  0.0000
  O2     O2        0.170412542543817    0.867690768190835    0.471473354826789  0.0000
  O1     O1        0.184182251050867    0.133969529914750    0.496315145249247  0.0000
  O2     O2        0.851130139210055    0.126689228013652    0.513917908195053  0.0000
  O2     O2        0.268569796429258    0.509863657299463    0.263935147525446  0.0000
  O2     O2        0.735402018233598    0.500380618437837    0.711542655399751  0.0000
  O2     O2        0.746697533522323    0.011965927434816    0.296170980058205  0.0000
  O3     O3        0.255820427342214    0.984030015450551    0.685695067000653  0.0000
  O3     O3        0.385783168335558    0.490785968723499    0.732325750324224  0.0000
  O2     O2        0.622642730786862    0.512432362263795    0.257017714391681  0.0000
  O2     O2        0.868120651959633    0.999460815430458    0.720406682453595  0.0000
  O3     O3        0.149880497249647    0.001043675751802    0.277038722430759  0.0000
