data_c01078.vasp
_audit_creation_method             Generated by GULP
_audit_author_name                 Salvador R. G. Balestra
_symmetry_space_group_name_H-M     'P 1             '
_symmetry_Int_Tables_number        1

loop_
_symmetry_equiv_pos_site_id
_symmetry_equiv_pos_as_xyz
_cell_length_a                       10.2039
_cell_length_b                       15.2980
_cell_length_c                        8.9365
_cell_angle_alpha                   90.1790
_cell_angle_beta                   105.4303
_cell_angle_gamma                   89.6941

loop_
_atom_site_label
_atom_site_type_symbol
_atom_site_fract_x
_atom_site_fract_y
_atom_site_fract_z
_atom_site_charge
  Ge     Ge        0.351599999999962    0.244500000000016    0.893900000000031  0.0000
  Ge     Ge        0.775710838555749    0.100025849502201    0.328611852158105  0.0000
  Ge     Ge        0.085569015765404    0.099952791625616    0.315363738271181  0.0000
  Ge     Ge        0.884643318189389    0.100055697579010    0.711006698577312  0.0000
  Si     Si        0.647415907419637    0.252514736773458    0.113067187871324  0.0000
  Si     Si        0.644334801632019    0.750750108859091    0.113994364035312  0.0000
  Si     Si        0.345862068950749    0.757307691078222    0.904631625869032  0.0000
  Si     Si        0.845487795244648    0.737553109609156    0.901047655172547  0.0000
  Si     Si        0.139462426418708    0.744713073376900    0.110617465676306  0.0000
  Si     Si        0.149563845388042    0.256358818832972    0.111270636541267  0.0000
  Si     Si        0.848896386549301    0.259700277412007    0.912194847344682  0.0000
  Si     Si        0.280176523173041    0.403620498335346    0.330673154180514  0.0000
  Si     Si        0.676289449760024    0.396711623226946    0.680890765005725  0.0000
  Si     Si        0.680505090036485    0.599415699038547    0.678219150335730  0.0000
  Si     Si        0.284029326913510    0.602970495283383    0.336786254062516  0.0000
  Si     Si        0.779228715916894    0.899463971490678    0.339657094282284  0.0000
  Si     Si        0.179664017024865    0.894035599568097    0.675140374033809  0.0000
  Si     Si        0.183435880876587    0.097636706961752    0.685261006576405  0.0000
  Si     Si        0.372826822719205    0.402876360162735    0.689916622024368  0.0000
  Si     Si        0.584475852884680    0.400234929122974    0.323932679454167  0.0000
  Si     Si        0.586896204979188    0.601460085661039    0.322870422929964  0.0000
  Si     Si        0.379831275327397    0.603564164032433    0.695004467410855  0.0000
  Si     Si        0.878961726981454    0.894967457150125    0.699360724243802  0.0000
  Si     Si        0.086242916124935    0.898130689778521    0.321546961681479  0.0000
  O3     O3        0.524938366496208    0.239214204323691    0.963063836939071  0.0000
  O2     O2        0.502842081730636    0.773167060584426    0.991002244539057  0.0000
  O2     O2        0.002905391404561    0.720275587738376    0.982484369783899  0.0000
  O2     O2        0.011289200445248    0.271118016936373    0.976069130700468  0.0000
  O3     O3        0.310201802458229    0.153354737897605    0.778303564855687  0.0000
  O3     O3        0.653624656444607    0.171779763234209    0.227571390631251  0.0000
  O2     O2        0.679560704939171    0.828257828676972    0.238960063101503  0.0000
  O2     O2        0.298370962027661    0.836332283431335    0.784038767285604  0.0000
  O2     O2        0.798960945187941    0.657033584933046    0.784484029574132  0.0000
  O2     O2        0.171494684282543    0.667382579352354    0.236189672311610  0.0000
  O2     O2        0.167555154734814    0.339069798244160    0.229374719770363  0.0000
  O2     O2        0.792449177026407    0.336799115323789    0.788418291513356  0.0000
  O3     O3        0.307414478571477    0.340370360369204    0.789437697738357  0.0000
  O2     O2        0.636482658660418    0.341908520817728    0.204104009135214  0.0000
  O2     O2        0.638476671694354    0.660102222303815    0.202557987256601  0.0000
  O2     O2        0.325437829094145    0.666014481959834    0.810050148689038  0.0000
  O2     O2        0.824519218349073    0.828177782356879    0.806678213433251  0.0000
  O2     O2        0.121195861439615    0.834302711654269    0.195937518880020  0.0000
  O3     O3        0.153014693312491    0.166741256306792    0.202773483527721  0.0000
  O3     O3        0.817462256031392    0.167187367971230    0.826565904882710  0.0000
  O3     O3        0.277967599979493    0.250267625260165    0.043207808246623  0.0000
  O2     O2        0.784830788461057    0.262142559966865    0.057554387708402  0.0000
  O2     O2        0.762638976631406    0.741874000257955    0.029067000438838  0.0000
  O2     O2        0.261197316839489    0.755630682634787    0.031019746850874  0.0000
  O2     O2        0.425176532430127    0.382818874525828    0.299022942991786  0.0000
  O2     O2        0.531520515128753    0.376963845619154    0.713757190363172  0.0000
  O2     O2        0.538046128767658    0.624044604485811    0.713692420315396  0.0000
  O2     O2        0.428806882805614    0.621900441610804    0.304182481850185  0.0000
  O2     O2        0.924201596178724    0.904313335400741    0.299305099142748  0.0000
  O2     O2        0.041033159595901    0.882133144584101    0.726346211648986  0.0000
  O3     O3        0.059428340409720    0.112827797183514    0.761671247470630  0.0000
  O1     O1        0.913332661130294    0.108340236792825    0.254970249823623  0.0000
  O2     O2        0.290796382747249    0.389176731307795    0.511030282479409  0.0000
  O2     O2        0.666434785147292    0.376760336464059    0.500359932906556  0.0000
  O2     O2        0.672103791513833    0.620529948337915    0.499286066889481  0.0000
  O2     O2        0.294234442211240    0.619225358383881    0.517736034121891  0.0000
  O2     O2        0.802229066567547    0.875899287981396    0.520350610619543  0.0000
  O2     O2        0.158440717081688    0.864882115874858    0.496351911152205  0.0000
  O3     O3        0.137425522080123    0.128937854629697    0.508271627303612  0.0000
  O1     O1        0.817469800748197    0.126473553939120    0.521416329906817  0.0000
  O2     O2        0.238067567061337    0.504026541561100    0.287337134708572  0.0000
  O2     O2        0.715389648877822    0.497916705806376    0.715854063169192  0.0000
  O3     O3        0.712558025041460    0.994278163990196    0.307627809870131  0.0000
  O2     O2        0.223326978518190    0.995027846197179    0.691328762849882  0.0000
  O2     O2        0.362348710553053    0.503462059539025    0.740950176179968  0.0000
  O2     O2        0.608185431319974    0.500511827808101    0.284434859781623  0.0000
  O3     O3        0.847951436060722    0.992428433044216    0.743590960807103  0.0000
  O3     O3        0.137470809795267    0.993402033031532    0.294562344095199  0.0000
