data_c01008.vasp
_audit_creation_method             Generated by GULP
_audit_author_name                 Salvador R. G. Balestra
_symmetry_space_group_name_H-M     'P 1             '
_symmetry_Int_Tables_number        1

loop_
_symmetry_equiv_pos_site_id
_symmetry_equiv_pos_as_xyz
_cell_length_a                       10.2215
_cell_length_b                       15.1876
_cell_length_c                        8.9578
_cell_angle_alpha                   89.4521
_cell_angle_beta                   105.1228
_cell_angle_gamma                   89.8409

loop_
_atom_site_label
_atom_site_type_symbol
_atom_site_fract_x
_atom_site_fract_y
_atom_site_fract_z
_atom_site_charge
  Ge     Ge        0.351599999999962    0.244500000000016    0.893900000000031  0.0000
  Ge     Ge        0.183804581260084    0.896231327673790    0.656790020984752  0.0000
  Ge     Ge        0.381800844239234    0.607365513940819    0.690265156936411  0.0000
  Ge     Ge        0.886131199859853    0.104763560101646    0.695739770595838  0.0000
  Si     Si        0.652639866169620    0.256048083066994    0.107297491612077  0.0000
  Si     Si        0.652541269285957    0.759786515525387    0.108559871937577  0.0000
  Si     Si        0.355010547874264    0.763775186339259    0.896256362115774  0.0000
  Si     Si        0.850331756914426    0.742165610813740    0.892649225753026  0.0000
  Si     Si        0.144151261529573    0.758595044669656    0.094398749059087  0.0000
  Si     Si        0.144810146924326    0.264537609959894    0.105052783119260  0.0000
  Si     Si        0.851689046754710    0.263349561496483    0.899034819673112  0.0000
  Si     Si        0.284043621820864    0.412379329622168    0.318912587014957  0.0000
  Si     Si        0.675928041080463    0.398425762572027    0.667106336731916  0.0000
  Si     Si        0.686678304400160    0.603634514037472    0.674458267650832  0.0000
  Si     Si        0.289504047881731    0.614096109622678    0.328897782614252  0.0000
  Si     Si        0.784542310692168    0.908328483308663    0.329517295977283  0.0000
  Si     Si        0.185532017675945    0.104966135824979    0.670044811747112  0.0000
  Si     Si        0.780270352421668    0.108107658308234    0.336325414154005  0.0000
  Si     Si        0.375295719911783    0.400836383536522    0.678442349231568  0.0000
  Si     Si        0.587028909926811    0.406881271184039    0.310866243594391  0.0000
  Si     Si        0.596224103910375    0.608743582292626    0.321040683203457  0.0000
  Si     Si        0.884090488494415    0.896119937129078    0.683789115130373  0.0000
  Si     Si        0.085397131403193    0.910009893055105    0.299829990743792  0.0000
  Si     Si        0.083753605228270    0.110155780731472    0.315809057924890  0.0000
  O3     O3        0.523406759997472    0.236649961372735    0.970742192198681  0.0000
  O2     O2        0.511323730661034    0.776249208310285    0.984503595513712  0.0000
  O2     O2        0.008951962661905    0.728726991500924    0.971152960550349  0.0000
  O2     O2        0.011614556016535    0.281753486530079    0.965820397095958  0.0000
  O3     O3        0.311481559608774    0.156066606234927    0.773027775431666  0.0000
  O2     O2        0.674530667548868    0.175100582758853    0.229009899361132  0.0000
  O2     O2        0.678933405279268    0.842383728350297    0.223446496022638  0.0000
  O3     O3        0.318683398052675    0.834198027854143    0.758021440082499  0.0000
  O2     O2        0.807892450520892    0.657455238223427    0.784959620735513  0.0000
  O2     O2        0.185292927844761    0.681557979222347    0.221607872706837  0.0000
  O2     O2        0.170588883671113    0.350127583465751    0.214640336246747  0.0000
  O2     O2        0.794356016632119    0.337120219855431    0.767487503457743  0.0000
  O3     O3        0.309583294852527    0.338256839715167    0.780350990616975  0.0000
  O2     O2        0.638336199209282    0.346757412833200    0.192942889048005  0.0000
  O2     O2        0.650092893965910    0.670586235551508    0.205578585969115  0.0000
  O3     O3        0.327336565862384    0.667548242898794    0.823349652374882  0.0000
  O2     O2        0.820813214670180    0.831416689160968    0.790029662833246  0.0000
  O2     O2        0.119198560083138    0.850692988367923    0.168719966219971  0.0000
  O2     O2        0.127013391353999    0.178424768643610    0.202522534181772  0.0000
  O3     O3        0.827708865253124    0.167725120951967    0.823479002839168  0.0000
  O3     O3        0.272352344027941    0.245731459078030    0.039871087305976  0.0000
  O2     O2        0.781967077419879    0.268313095167143    0.039188742764743  0.0000
  O2     O2        0.771123656413663    0.748686111545532    0.024371219973509  0.0000
  O2     O2        0.262098253505284    0.778681891180300    0.012550172510263  0.0000
  O2     O2        0.428120441031214    0.389066273660508    0.287343530845392  0.0000
  O2     O2        0.532186063644275    0.371946017449740    0.697050161441951  0.0000
  O3     O3        0.547159704036287    0.636372614637470    0.702905910778231  0.0000
  O2     O2        0.440866376981511    0.631695431614971    0.313048082864728  0.0000
  O2     O2        0.934426749471687    0.889681946343827    0.312711035061982  0.0000
  O3     O3        0.032167543247617    0.860113319822009    0.685236966013152  0.0000
  O3     O3        0.046978943210382    0.141342041044097    0.700782620396315  0.0000
  O2     O2        0.931394775000422    0.128800013900664    0.323574115111219  0.0000
  O2     O2        0.292405342489667    0.396384103407219    0.498675229956145  0.0000
  O2     O2        0.669543764320904    0.385025476958311    0.486776683444090  0.0000
  O2     O2        0.686495072279914    0.621282412138861    0.495925257613631  0.0000
  O3     O3        0.285180513062936    0.627586451270266    0.503658220181044  0.0000
  O2     O2        0.786845383004332    0.894997588808072    0.508853725201375  0.0000
  O3     O3        0.186105861105943    0.889637391157709    0.464909242899528  0.0000
  O2     O2        0.181112927535906    0.116615235165306    0.488366586665583  0.0000
  O3     O3        0.778471557687676    0.117791184224283    0.512572142445578  0.0000
  O2     O2        0.246103974927378    0.514293646705857    0.276248751495070  0.0000
  O2     O2        0.707264853490372    0.499797028869852    0.713061202190020  0.0000
  O2     O2        0.739129909426110    0.008528398896808    0.279032078351817  0.0000
  O3     O3        0.201251719810682    0.003186837978168    0.716714354046900  0.0000
  O3     O3        0.370456727883153    0.498941075491771    0.738288365200665  0.0000
  O2     O2        0.609115862001511    0.508329886859673    0.269563459551720  0.0000
  O3     O3        0.890304578032319    0.994680662516982    0.747022049542372  0.0000
  O2     O2        0.096171807651177    0.012193521503768    0.251382321198347  0.0000
