data_c01013.vasp
_audit_creation_method             Generated by GULP
_audit_author_name                 Salvador R. G. Balestra
_symmetry_space_group_name_H-M     'P 1             '
_symmetry_Int_Tables_number        1

loop_
_symmetry_equiv_pos_site_id
_symmetry_equiv_pos_as_xyz
_cell_length_a                       10.2586
_cell_length_b                       15.2657
_cell_length_c                        8.9400
_cell_angle_alpha                   89.7175
_cell_angle_beta                   105.3870
_cell_angle_gamma                   90.1978

loop_
_atom_site_label
_atom_site_type_symbol
_atom_site_fract_x
_atom_site_fract_y
_atom_site_fract_z
_atom_site_charge
  Ge     Ge        0.351599999999962    0.244500000000016    0.893900000000031  0.0000
  Ge     Ge        0.188199238395591    0.894325603641903    0.670943117013397  0.0000
  Ge     Ge        0.087506308884762    0.898587280009452    0.298285857658614  0.0000
  Ge     Ge        0.882747550871193    0.098905793833478    0.693888050227675  0.0000
  Si     Si        0.652462086200976    0.246364039561227    0.107071825449450  0.0000
  Si     Si        0.631838762726489    0.752164100463563    0.111548476400474  0.0000
  Si     Si        0.338795511508175    0.750562933944234    0.893102136286539  0.0000
  Si     Si        0.829405088143063    0.740400373153136    0.894178798593038  0.0000
  Si     Si        0.130752921368589    0.743549105319162    0.092000098863407  0.0000
  Si     Si        0.143797301306289    0.257454563062309    0.103493551638842  0.0000
  Si     Si        0.850325008278658    0.257833825463356    0.899454515058994  0.0000
  Si     Si        0.285832788006568    0.402371630674855    0.322415670226763  0.0000
  Si     Si        0.678403227257080    0.394607438873818    0.671877666939070  0.0000
  Si     Si        0.687558703832110    0.596494221588964    0.672116515271773  0.0000
  Si     Si        0.293054161545541    0.603812070027949    0.323470509192407  0.0000
  Si     Si        0.787269487774763    0.898166761580955    0.323122116938707  0.0000
  Si     Si        0.186611295821659    0.101188141059428    0.668490080281654  0.0000
  Si     Si        0.782292425755668    0.097327976985377    0.328212478895642  0.0000
  Si     Si        0.377849694233549    0.399971682940063    0.681264716670188  0.0000
  Si     Si        0.587397945539290    0.397148476196656    0.313107712441234  0.0000
  Si     Si        0.597084475018388    0.597997661808938    0.315692279877733  0.0000
  Si     Si        0.386563541303405    0.602184603251074    0.678890695577099  0.0000
  Si     Si        0.886201449570864    0.894260422554500    0.689514542057487  0.0000
  Si     Si        0.083379493193155    0.102394541583301    0.310461359089702  0.0000
  O3     O3        0.522171867010783    0.229936101894197    0.969385293086588  0.0000
  O2     O2        0.474298743172721    0.763070619417843    0.028789570930012  0.0000
  O2     O2        0.972646442384738    0.726094527260251    0.016297910517101  0.0000
  O2     O2        0.010663188848037    0.275268995513212    0.964206986170886  0.0000
  O3     O3        0.305964717867906    0.161390596162214    0.762485134825810  0.0000
  O2     O2        0.673977559151786    0.162245970221255    0.220667246822390  0.0000
  O2     O2        0.671291778371977    0.831801753086439    0.232625152816801  0.0000
  O3     O3        0.319836567390521    0.832845564568547    0.779929543310927  0.0000
  O2     O2        0.801620247443073    0.655850436368329    0.782705739719571  0.0000
  O2     O2        0.182517546631638    0.667551130979489    0.219400229468612  0.0000
  O2     O2        0.170314301979227    0.341294324025321    0.217413464541999  0.0000
  O2     O2        0.794248989470007    0.332913536798286    0.772100598362029  0.0000
  O3     O3        0.316950273736504    0.343184752422643    0.794615180862237  0.0000
  O2     O2        0.639647394998404    0.334285571308585    0.200358005849972  0.0000
  O2     O2        0.656815835261716    0.660228298697465    0.205018927534407  0.0000
  O2     O2        0.335945082535732    0.661392461792087    0.797714897279024  0.0000
  O2     O2        0.822202314218077    0.826156826864284    0.787505081780486  0.0000
  O3     O3        0.150157764816078    0.837351159258010    0.172520297311862  0.0000
  O2     O2        0.125256603924839    0.170577578775365    0.196402539343704  0.0000
  O3     O3        0.823492498692052    0.164453463828813    0.816495871331464  0.0000
  O3     O3        0.271426645427319    0.241440963763879    0.038321782090541  0.0000
  O2     O2        0.781882762727597    0.261309882847641    0.040619171555620  0.0000
  O2     O2        0.715851057421051    0.751802744851739    0.985104858348085  0.0000
  O2     O2        0.209973067983393    0.742158405333335    0.961222537677893  0.0000
  O2     O2        0.427946609016399    0.380873911065324    0.285923624059210  0.0000
  O2     O2        0.535431335502193    0.373265311565549    0.707276528034772  0.0000
  O2     O2        0.543660734838990    0.622391022550721    0.698212203562826  0.0000
  O2     O2        0.439601177032968    0.620329617792563    0.294408942482641  0.0000
  O3     O3        0.913177961234566    0.889710724901073    0.251182289860153  0.0000
  O3     O3        0.047108616061582    0.885576438552425    0.741053213085671  0.0000
  O3     O3        0.055636354990548    0.111265681905611    0.733713413534037  0.0000
  O2     O2        0.921615459033367    0.099736483211684    0.277883085393264  0.0000
  O2     O2        0.297691679156729    0.383028009766270    0.502496615014051  0.0000
  O2     O2        0.666493173114976    0.377676986640133    0.490942927563917  0.0000
  O2     O2        0.682706110985263    0.613655579590054    0.492681088559161  0.0000
  O2     O2        0.301203262777899    0.622827051551748    0.503132652265862  0.0000
  O2     O2        0.835669926996629    0.874511800153112    0.505482603356989  0.0000
  O1     O1        0.154732879844284    0.861737148268435    0.482612917804205  0.0000
  O2     O2        0.147206533135056    0.130197257387537    0.487864785527043  0.0000
  O3     O3        0.805548535323008    0.126617918488932    0.504005415912588  0.0000
  O2     O2        0.247328381746624    0.503624415376927    0.282696746013587  0.0000
  O2     O2        0.720352251049033    0.495005273430236    0.714287990814539  0.0000
  O2     O2        0.727586134915162    0.997095786540855    0.305423974545609  0.0000
  O3     O3        0.237697500962290    0.002224114442852    0.681739277502747  0.0000
  O2     O2        0.366482566824853    0.501685760265149    0.721078599195412  0.0000
  O2     O2        0.612753517612411    0.497387563010620    0.269432880162376  0.0000
  O3     O3        0.843719240587208    0.991275658084415    0.723740653725724  0.0000
  O3     O3        0.132698637126542    0.006645130891466    0.279790482152752  0.0000
