data_c01168.vasp
_audit_creation_method             Generated by GULP
_audit_author_name                 Salvador R. G. Balestra
_symmetry_space_group_name_H-M     'P 1             '
_symmetry_Int_Tables_number        1

loop_
_symmetry_equiv_pos_site_id
_symmetry_equiv_pos_as_xyz
_cell_length_a                       10.2295
_cell_length_b                       15.3037
_cell_length_c                        8.9361
_cell_angle_alpha                   90.0660
_cell_angle_beta                   105.3994
_cell_angle_gamma                   90.0112

loop_
_atom_site_label
_atom_site_type_symbol
_atom_site_fract_x
_atom_site_fract_y
_atom_site_fract_z
_atom_site_charge
  Ge     Ge        0.306699999999978    0.397900000000050    0.331699999999955  0.0000
  Ge     Ge        0.715758148794382    0.396612488079013    0.695009228087922  0.0000
  Ge     Ge        0.408927159496735    0.397739327991921    0.711168672761565  0.0000
  Ge     Ge        0.612853931090299    0.395264329004211    0.312138990003038  0.0000
  Si     Si        0.348007525007958    0.242473961903392    0.916245168641032  0.0000
  Si     Si        0.651583885547136    0.236781711334976    0.110805757989574  0.0000
  Si     Si        0.654665188865189    0.756367200766038    0.118816488822468  0.0000
  Si     Si        0.361486403001833    0.756378946995758    0.906420732501225  0.0000
  Si     Si        0.858616756541724    0.744230825859906    0.908072940622457  0.0000
  Si     Si        0.157189648586539    0.744225880344557    0.115425100882556  0.0000
  Si     Si        0.143162349635598    0.249681253516536    0.124643264438679  0.0000
  Si     Si        0.851123171801167    0.243467888444849    0.903065811937314  0.0000
  Si     Si        0.717083635379584    0.598213037637076    0.681241844454274  0.0000
  Si     Si        0.314920846054694    0.601587430519400    0.343656038788434  0.0000
  Si     Si        0.818374391955363    0.895274180170254    0.342531928742160  0.0000
  Si     Si        0.214093241252924    0.897508093576445    0.682961165394742  0.0000
  Si     Si        0.211448836974119    0.097768178790591    0.689291611893859  0.0000
  Si     Si        0.815350883139406    0.096566537207740    0.337773549306294  0.0000
  Si     Si        0.618724049252497    0.598377546503086    0.323154703979822  0.0000
  Si     Si        0.412076339738195    0.600652595705532    0.699248235751031  0.0000
  Si     Si        0.913197387868591    0.894439608491184    0.698895305800250  0.0000
  Si     Si        0.118735152187048    0.896928040778939    0.324567662252855  0.0000
  Si     Si        0.119132723228068    0.097003099877180    0.331522860339250  0.0000
  Si     Si        0.907656685743865    0.095404582783932    0.694352018191702  0.0000
  O2     O2        0.490640732029605    0.226147148944326    0.041003219507526  0.0000
  O2     O2        0.500741849096177    0.778522714169771    0.031372727949464  0.0000
  O2     O2        0.001857909580115    0.723778596242963    0.028226867441748  0.0000
  O2     O2        0.984463453672703    0.251611617540152    0.042680171492282  0.0000
  O2     O2        0.322407139747367    0.162562334038947    0.792518327413381  0.0000
  O2     O2        0.701244671668639    0.156647473078922    0.229571669657800  0.0000
  O2     O2        0.702946488461345    0.834098267742467    0.240629414280248  0.0000
  O2     O2        0.329633390514837    0.835052977557213    0.783057632188377  0.0000
  O2     O2        0.822315663503802    0.666503370766221    0.783409641488307  0.0000
  O2     O2        0.208977137346433    0.667916954495206    0.238804147067879  0.0000
  O3     O3        0.173518074564520    0.334075535206512    0.231772075938542  0.0000
  O3     O3        0.841161615397956    0.326157075482150    0.792549710151202  0.0000
  O3     O3        0.340800740713035    0.333526752492613    0.828830656929603  0.0000
  O3     O3        0.685268335632870    0.326931235006385    0.203403045106702  0.0000
  O2     O2        0.664909926229186    0.664881215390626    0.208880650098972  0.0000
  O2     O2        0.373093798256830    0.666493934727540    0.819191559435931  0.0000
  O2     O2        0.861408513317688    0.834997364477310    0.818319748920950  0.0000
  O2     O2        0.172475443242483    0.836185729167070    0.207427913348953  0.0000
  O2     O2        0.180039535698722    0.161613511960861    0.227166161962080  0.0000
  O2     O2        0.848385467781823    0.154463446719510    0.806924293443684  0.0000
  O2     O2        0.229195051962461    0.246276591845056    0.000535422543684  0.0000
  O2     O2        0.720700717496826    0.236775291646494    0.970073418254969  0.0000
  O2     O2        0.743300449651295    0.751208080586248    0.997108514195319  0.0000
  O2     O2        0.242514078100020    0.747417927068750    0.990237395737209  0.0000
  O1     O1        0.439768714607902    0.386764603874940    0.251155867520979  0.0000
  O1     O1        0.581302534468177    0.389943333281147    0.774019604979982  0.0000
  O2     O2        0.574647448133471    0.595851059999156    0.727382845907202  0.0000
  O2     O2        0.455836882818794    0.599285034313503    0.294231680097755  0.0000
  O2     O2        0.961418998195409    0.874784438204677    0.306560780211108  0.0000
  O2     O2        0.071009094171401    0.874903080877423    0.716918196469457  0.0000
  O2     O2        0.065452480944730    0.117604898282144    0.717691993400531  0.0000
  O2     O2        0.960676759139762    0.117725101333886    0.308867327929022  0.0000
  O1     O1        0.354431473295602    0.366031538346287    0.521813203968165  0.0000
  O1     O1        0.663899608635768    0.367627839932784    0.503631891881335  0.0000
  O2     O2        0.690771218339805    0.624693504893234    0.500872040591438  0.0000
  O2     O2        0.342969978110306    0.631446162467738    0.523006175905624  0.0000
  O2     O2        0.828658444696706    0.875783787258648    0.522376248965996  0.0000
  O2     O2        0.204036407521743    0.881543009335175    0.501938602211265  0.0000
  O2     O2        0.202857085594380    0.113212245002201    0.508933017410102  0.0000
  O2     O2        0.823401783320799    0.114979925745802    0.517784178859171  0.0000
  O3     O3        0.253003650341705    0.505593693487718    0.323472133659060  0.0000
  O3     O3        0.779427107340088    0.502262144456584    0.707696375700643  0.0000
  O2     O2        0.777056698318593    0.995430626099999    0.300315322046786  0.0000
  O2     O2        0.254252249071537    0.997496497121927    0.731182463466371  0.0000
  O3     O3        0.360138567623753    0.505488805895425    0.726736169701857  0.0000
  O3     O3        0.662064418362849    0.501971033910882    0.289019282394892  0.0000
  O2     O2        0.891677385803637    0.994949648192529    0.739270439031409  0.0000
  O2     O2        0.136197556131156    0.997523680671656    0.280076878426408  0.0000
