data_c01115.vasp
_audit_creation_method             Generated by GULP
_audit_author_name                 Salvador R. G. Balestra
_symmetry_space_group_name_H-M     'P 1             '
_symmetry_Int_Tables_number        1

loop_
_symmetry_equiv_pos_site_id
_symmetry_equiv_pos_as_xyz
_cell_length_a                       10.1852
_cell_length_b                       15.2272
_cell_length_c                        8.9908
_cell_angle_alpha                   90.0413
_cell_angle_beta                   105.4472
_cell_angle_gamma                   89.5733

loop_
_atom_site_label
_atom_site_type_symbol
_atom_site_fract_x
_atom_site_fract_y
_atom_site_fract_z
_atom_site_charge
  Ge     Ge        0.351599999999962    0.244500000000016    0.893900000000031  0.0000
  Ge     Ge        0.594043995428227    0.608930022888573    0.319149739746172  0.0000
  Ge     Ge        0.376157551044741    0.607417708759600    0.685311915879856  0.0000
  Ge     Ge        0.878475362866363    0.901932551648076    0.684354270471169  0.0000
  Si     Si        0.654341026610991    0.252304607261695    0.107121893434538  0.0000
  Si     Si        0.648605117295066    0.761659767413273    0.100863790765854  0.0000
  Si     Si        0.349707521697673    0.764972100749645    0.894366849298533  0.0000
  Si     Si        0.849342204324962    0.745754295671454    0.895161029029469  0.0000
  Si     Si        0.146582420787413    0.755422758786226    0.099432937636837  0.0000
  Si     Si        0.147934033927641    0.259900699282150    0.108998919125265  0.0000
  Si     Si        0.853511325918784    0.264207512127818    0.896532297474099  0.0000
  Si     Si        0.286106367799116    0.407600036187117    0.323829610850962  0.0000
  Si     Si        0.677900984768357    0.400694762867458    0.670624060984592  0.0000
  Si     Si        0.685632873414997    0.606304941101293    0.674374215262571  0.0000
  Si     Si        0.280325280314253    0.609009217208394    0.327015485626366  0.0000
  Si     Si        0.779583782888668    0.907887296565302    0.324354915461869  0.0000
  Si     Si        0.181913929112807    0.898088466604684    0.662026216433987  0.0000
  Si     Si        0.184218696920395    0.103220877437478    0.668148713452555  0.0000
  Si     Si        0.786137028265605    0.107255389023571    0.333319344905959  0.0000
  Si     Si        0.377578311484591    0.402007164205657    0.683124612079804  0.0000
  Si     Si        0.589895819271246    0.402674021227587    0.314007026890387  0.0000
  Si     Si        0.086305159297341    0.905255115502183    0.310675617783816  0.0000
  Si     Si        0.088590713960536    0.106840047234855    0.314886498866048  0.0000
  Si     Si        0.885997000674261    0.108270634147684    0.690944989953479  0.0000
  O3     O3        0.523902564754569    0.233638847746628    0.970260877809836  0.0000
  O2     O2        0.510241192969917    0.776559661939927    0.968048525194239  0.0000
  O2     O2        0.011615342362083    0.738458062454322    0.963781930369324  0.0000
  O2     O2        0.013637984411619    0.278913949150761    0.971363136695229  0.0000
  O3     O3        0.306758254781487    0.154606057533059    0.775701922509648  0.0000
  O2     O2        0.676423466081988    0.174141919269085    0.232693726132821  0.0000
  O2     O2        0.669562786460395    0.844668690231069    0.215631315361643  0.0000
  O2     O2        0.305500013926729    0.841353553740089    0.766629881205094  0.0000
  O2     O2        0.804336613233735    0.659076364751824    0.792975425436530  0.0000
  O2     O2        0.171157645118419    0.672420716547801    0.213969288267102  0.0000
  O2     O2        0.171946905999559    0.342655131373106    0.225907689916558  0.0000
  O2     O2        0.798909561946616    0.344238095639674    0.779383566787586  0.0000
  O3     O3        0.312245675391609    0.338306782468156    0.782502420602024  0.0000
  O2     O2        0.642708053147219    0.342047651428722    0.196660821594618  0.0000
  O3     O3        0.645202075139665    0.671644462796386    0.189089729528074  0.0000
  O3     O3        0.318869406246957    0.671451306493945    0.812304828786430  0.0000
  O3     O3        0.811226703994024    0.833587493253156    0.795157080111347  0.0000
  O2     O2        0.131850619548270    0.844651415409108    0.188848420245059  0.0000
  O2     O2        0.136451665418108    0.170196492527651    0.198889455442338  0.0000
  O2     O2        0.828858551233980    0.173738553156199    0.799414675066890  0.0000
  O3     O3        0.275740155945014    0.247834792553163    0.041515946056775  0.0000
  O2     O2        0.781749879969184    0.260045885425576    0.034200059749971  0.0000
  O2     O2        0.776946638466093    0.752370075528491    0.031668981233488  0.0000
  O2     O2        0.272885569715765    0.770735493224019    0.028171755879133  0.0000
  O2     O2        0.431364733505804    0.382219238394350    0.296142160558307  0.0000
  O2     O2        0.534205110532130    0.371847913685708    0.698620321837709  0.0000
  O3     O3        0.539280196262246    0.638351904367840    0.688028345604615  0.0000
  O3     O3        0.430292188428658    0.635259094263416    0.319856583109749  0.0000
  O2     O2        0.930364150794182    0.887714205657865    0.307001592310256  0.0000
  O3     O3        0.042251066620042    0.867749248069321    0.693505487912708  0.0000
  O2     O2        0.042208528688470    0.133776299504253    0.701543497241709  0.0000
  O2     O2        0.932108930543322    0.127025043831101    0.305285430705885  0.0000
  O2     O2        0.292691228826320    0.399075154080782    0.503763835418882  0.0000
  O2     O2        0.675215249267411    0.386238919158131    0.491664981600744  0.0000
  O3     O3        0.697860228881921    0.623262648525747    0.503156936455647  0.0000
  O3     O3        0.270730439607827    0.619052230182997    0.500648046416305  0.0000
  O3     O3        0.777353645832377    0.892165584900458    0.498273744708343  0.0000
  O2     O2        0.178813604317142    0.883773975121056    0.482667284883000  0.0000
  O2     O2        0.178774613007970    0.121884244530738    0.489520694176867  0.0000
  O2     O2        0.794763670168058    0.117316649618221    0.514140146232519  0.0000
  O2     O2        0.249248712162199    0.508086626184514    0.270989837185682  0.0000
  O2     O2        0.702569098977288    0.502691412890689    0.713296177849266  0.0000
  O2     O2        0.739307888832915    0.008931331105894    0.278175489716096  0.0000
  O2     O2        0.204683540169209    0.000099562352381    0.704438776082391  0.0000
  O3     O3        0.374540278028299    0.500154384401974    0.744794362333160  0.0000
  O3     O3        0.605989112168878    0.501350035998580    0.265025320477057  0.0000
  O3     O3        0.877394550493563    0.009333158516707    0.746013920795334  0.0000
  O2     O2        0.105664818072318    0.006106822954805    0.265727873779061  0.0000
