data_c01182.vasp
_audit_creation_method             Generated by GULP
_audit_author_name                 Salvador R. G. Balestra
_symmetry_space_group_name_H-M     'P 1             '
_symmetry_Int_Tables_number        1

loop_
_symmetry_equiv_pos_site_id
_symmetry_equiv_pos_as_xyz
_cell_length_a                       10.1950
_cell_length_b                       15.1999
_cell_length_c                        8.9572
_cell_angle_alpha                   90.7159
_cell_angle_beta                   105.3653
_cell_angle_gamma                   90.3577

loop_
_atom_site_label
_atom_site_type_symbol
_atom_site_fract_x
_atom_site_fract_y
_atom_site_fract_z
_atom_site_charge
  Ge     Ge        0.306699999999978    0.397900000000050    0.331699999999955  0.0000
  Ge     Ge        0.715782322656832    0.412770168560792    0.677686149723681  0.0000
  Ge     Ge        0.906963761277590    0.908208265521250    0.694171224215165  0.0000
  Ge     Ge        0.904679086090823    0.117356149418521    0.676298751825766  0.0000
  Si     Si        0.379092492215054    0.250013332982823    0.892219027754211  0.0000
  Si     Si        0.675748029085020    0.250284728903182    0.100304088808068  0.0000
  Si     Si        0.665436070535509    0.754007525904672    0.103126218473867  0.0000
  Si     Si        0.369594131491999    0.764991618418959    0.890043335179789  0.0000
  Si     Si        0.868308454687370    0.752447540070678    0.895629440604405  0.0000
  Si     Si        0.166410969950828    0.748345043637429    0.100688643313974  0.0000
  Si     Si        0.173812284970489    0.248308363309927    0.098974676789358  0.0000
  Si     Si        0.876424496054899    0.269789517836606    0.892872245717339  0.0000
  Si     Si        0.702898139880717    0.617368651668837    0.660466609732417  0.0000
  Si     Si        0.302944180210875    0.602159296418287    0.320620879923488  0.0000
  Si     Si        0.811031416894989    0.900435251563844    0.329748287495339  0.0000
  Si     Si        0.210680288516218    0.905632546128622    0.671641808975168  0.0000
  Si     Si        0.210930944597550    0.112036919727646    0.661720482859245  0.0000
  Si     Si        0.812791028489968    0.101230489087833    0.312953795157094  0.0000
  Si     Si        0.405840790866636    0.407106463318108    0.692329014273218  0.0000
  Si     Si        0.617917343934893    0.399390537919567    0.318325112314409  0.0000
  Si     Si        0.605148253779201    0.602065193849802    0.304870215010650  0.0000
  Si     Si        0.402059079699822    0.610200776396698    0.678366076958380  0.0000
  Si     Si        0.115666432217719    0.898524027828730    0.318458244605347  0.0000
  Si     Si        0.118560972252456    0.100609570986336    0.307746982201007  0.0000
  O2     O2        0.537734088460977    0.234459456011753    0.967800392624891  0.0000
  O2     O2        0.527251623061568    0.776787255788607    0.977367282234388  0.0000
  O2     O2        0.025120331625049    0.730541730049666    0.974180510315710  0.0000
  O2     O2        0.037232754160044    0.257615584877404    0.962984828536180  0.0000
  O2     O2        0.332052705802314    0.172210867175604    0.765371168399054  0.0000
  O2     O2        0.702620118049849    0.163017846517139    0.202715322343806  0.0000
  O2     O2        0.700087347373494    0.833602980960726    0.227270789961286  0.0000
  O2     O2        0.330718199580293    0.849871320652260    0.781804107828048  0.0000
  O2     O2        0.815359663664680    0.687313503628906    0.748468459588980  0.0000
  O2     O2        0.193540673560814    0.667876150591491    0.219428055162942  0.0000
  O3     O3        0.187381621933144    0.326930457429509    0.221634917129902  0.0000
  O3     O3        0.847291452423977    0.359923957841439    0.802040120913666  0.0000
  O2     O2        0.356358182030069    0.345982521663502    0.813772813917988  0.0000
  O2     O2        0.669701407074160    0.336931162575795    0.201530360882583  0.0000
  O2     O2        0.655278714578823    0.662143722037930    0.185841874998658  0.0000
  O2     O2        0.342833317563159    0.675600243399293    0.785984519621358  0.0000
  O3     O3        0.851291273064818    0.849328760830116    0.828227732565868  0.0000
  O2     O2        0.164371269273475    0.837685463343444    0.197707235148552  0.0000
  O2     O2        0.173539789202977    0.155980590152042    0.185841484836422  0.0000
  O3     O3        0.826856147806901    0.190398781946929    0.771610528707327  0.0000
  O2     O2        0.301079479146981    0.248167584842067    0.025553783434817  0.0000
  O2     O2        0.799916890180444    0.267438161310985    0.026867608616977  0.0000
  O2     O2        0.785129934530710    0.740375475162268    0.021539429453135  0.0000
  O2     O2        0.284494622985702    0.758598943912582    0.015514519369448  0.0000
  O3     O3        0.466964467691724    0.371269066616731    0.319430774917882  0.0000
  O3     O3        0.558722105320964    0.380733885446338    0.696160044440162  0.0000
  O2     O2        0.555408700623515    0.640130596625919    0.685257582484887  0.0000
  O2     O2        0.449997747996190    0.624713985597714    0.295645711873382  0.0000
  O2     O2        0.961346475461778    0.874918804324744    0.316952489985332  0.0000
  O3     O3        0.069705597506229    0.874805811778200    0.699528217409294  0.0000
  O3     O3        0.070859426751297    0.146605725065637    0.685879126339688  0.0000
  O2     O2        0.963398248150706    0.125469836429602    0.297979456606976  0.0000
  O3     O3        0.306230047704277    0.391336029296838    0.523574453200874  0.0000
  O3     O3        0.718125589330315    0.392760181793457    0.488140196047283  0.0000
  O2     O2        0.697278649637214    0.620185634017934    0.478775760295001  0.0000
  O2     O2        0.308972968631472    0.613940931885167    0.502270250786514  0.0000
  O3     O3        0.806557952273708    0.896121553413188    0.505949048942648  0.0000
  O2     O2        0.210430247331831    0.887455070363188    0.492745438952684  0.0000
  O2     O2        0.210636687740963    0.120908179946081    0.481585798670060  0.0000
  O3     O3        0.807763282264192    0.116718734959729    0.486734457019604  0.0000
  O3     O3        0.262143741969905    0.503062006721009    0.268422237351527  0.0000
  O3     O3        0.745482684747745    0.522079697899194    0.724918834809861  0.0000
  O2     O2        0.777072959706847    0.999143991062160    0.265956073614160  0.0000
  O2     O2        0.231437068515171    0.009884399022842    0.710411039023947  0.0000
  O2     O2        0.401620447154673    0.510500929348664    0.739544027815162  0.0000
  O2     O2        0.616685513445240    0.500097153434802    0.259627689616308  0.0000
  O1     O1        0.903203333877599    0.015124326474391    0.750934645648525  0.0000
  O2     O2        0.127289241322237    0.998276873946518    0.264458267719492  0.0000
