data_c01126.vasp
_audit_creation_method             Generated by GULP
_audit_author_name                 Salvador R. G. Balestra
_symmetry_space_group_name_H-M     'P 1             '
_symmetry_Int_Tables_number        1

loop_
_symmetry_equiv_pos_site_id
_symmetry_equiv_pos_as_xyz
_cell_length_a                       10.2010
_cell_length_b                       15.2531
_cell_length_c                        8.9741
_cell_angle_alpha                   90.0332
_cell_angle_beta                   105.4116
_cell_angle_gamma                   89.7044

loop_
_atom_site_label
_atom_site_type_symbol
_atom_site_fract_x
_atom_site_fract_y
_atom_site_fract_z
_atom_site_charge
  Ge     Ge        0.351599999999962    0.244500000000016    0.893900000000031  0.0000
  Ge     Ge        0.407773067868367    0.603519673255881    0.685017812587331  0.0000
  Ge     Ge        0.907969406402637    0.897228487810062    0.686167876039747  0.0000
  Ge     Ge        0.122224173498121    0.103612416169074    0.313042232293902  0.0000
  Si     Si        0.653052688171346    0.246510981889818    0.112174514212879  0.0000
  Si     Si        0.677221956462055    0.754489313107984    0.104724247861191  0.0000
  Si     Si        0.378654747180345    0.759337613441851    0.895415599890713  0.0000
  Si     Si        0.876662014825730    0.740688610964922    0.894536194479915  0.0000
  Si     Si        0.174571919520878    0.748667642439515    0.099040993426617  0.0000
  Si     Si        0.146289426781624    0.261782260310494    0.101159571374653  0.0000
  Si     Si        0.850024867082506    0.255526266427600    0.897381191958061  0.0000
  Si     Si        0.317023492829651    0.402915892645468    0.318580922233304  0.0000
  Si     Si        0.710131766623900    0.398658964975763    0.669322584237723  0.0000
  Si     Si        0.715839248042055    0.601818823497155    0.671746965347712  0.0000
  Si     Si        0.315053785170007    0.603541264769804    0.324086331159440  0.0000
  Si     Si        0.810792950877771    0.903133596613783    0.326375763410382  0.0000
  Si     Si        0.211442878470660    0.892677526507478    0.665634574906951  0.0000
  Si     Si        0.216338090426767    0.096222166099657    0.674564742708017  0.0000
  Si     Si        0.815162006830318    0.104588746544436    0.333565567778667  0.0000
  Si     Si        0.407963652911576    0.397881553676395    0.677554513065367  0.0000
  Si     Si        0.621016366660615    0.402195367528527    0.311706596087302  0.0000
  Si     Si        0.621943993039905    0.603717882500123    0.317959586371587  0.0000
  Si     Si        0.116636007833538    0.899188817972618    0.312132149915608  0.0000
  Si     Si        0.915784367120287    0.103667922850628    0.691153731493042  0.0000
  O3     O3        0.493943364618651    0.234633272971945    0.043357414830558  0.0000
  O2     O2        0.538533515289715    0.769754672273276    0.973633172204295  0.0000
  O2     O2        0.037648144777550    0.731361455742463    0.967187494804863  0.0000
  O2     O2        0.983770188183998    0.273163694368611    0.034827722931605  0.0000
  O3     O3        0.335149564334531    0.149296930077166    0.787423840967309  0.0000
  O2     O2        0.699729083773575    0.168603941180280    0.235064239000105  0.0000
  O2     O2        0.703559249337814    0.840486581842456    0.212112486525728  0.0000
  O2     O2        0.335840256218590    0.835219847519101    0.766281360514231  0.0000
  O2     O2        0.835983526594055    0.659839996835824    0.776163119340353  0.0000
  O2     O2        0.205551579508561    0.664454895685608    0.209492516262000  0.0000
  O2     O2        0.200388109574247    0.341557217538145    0.218797747035959  0.0000
  O2     O2        0.824001880603404    0.336136378521712    0.776248033969269  0.0000
  O3     O3        0.345640887849723    0.333850246561338    0.776889258682491  0.0000
  O2     O2        0.680837086941286    0.340380161718735    0.200363417017743  0.0000
  O2     O2        0.671576842249229    0.667683314763340    0.204053583799022  0.0000
  O3     O3        0.348405428677793    0.666368598768359    0.811584069917432  0.0000
  O3     O3        0.843188282114096    0.832149114149555    0.805073192695657  0.0000
  O2     O2        0.161479204159467    0.834294399056091    0.196146281047057  0.0000
  O3     O3        0.182015749288563    0.171075076888162    0.194122835319564  0.0000
  O2     O2        0.862244474115601    0.166574541046311    0.805648307444931  0.0000
  O3     O3        0.210994285414124    0.261973856447276    0.960156030113802  0.0000
  O2     O2        0.725230940021858    0.244229684155862    0.973578502455159  0.0000
  O2     O2        0.799703796409029    0.737599475236233    0.028199184957769  0.0000
  O2     O2        0.297364137262139    0.767812476942030    0.024283086180835  0.0000
  O2     O2        0.461889699005377    0.379880643805949    0.286754976613190  0.0000
  O2     O2        0.565873575150369    0.373432538223488    0.697148660007407  0.0000
  O3     O3        0.574412383395504    0.631479347360646    0.699975097522388  0.0000
  O2     O2        0.466402174853240    0.624965004045184    0.311462617588086  0.0000
  O2     O2        0.962116150389168    0.881454282329949    0.314621207925349  0.0000
  O3     O3        0.070456201878484    0.861314430440944    0.692815781241438  0.0000
  O2     O2        0.070171328302759    0.128618384962128    0.694805123580872  0.0000
  O3     O3        0.956283207043606    0.131246691652851    0.302587516893161  0.0000
  O2     O2        0.325575606858336    0.389558852810017    0.498058986747970  0.0000
  O2     O2        0.704021777323643    0.384866926477851    0.489235732027195  0.0000
  O2     O2        0.713440806011901    0.617043453618690    0.492605673106822  0.0000
  O3     O3        0.310065288239551    0.619479458689221    0.497792904311273  0.0000
  O3     O3        0.804880682387919    0.888211779337168    0.500064853759943  0.0000
  O2     O2        0.211059628106300    0.884156045071482    0.485927215175317  0.0000
  O3     O3        0.220576084593765    0.112992120926766    0.500268014662469  0.0000
  O2     O2        0.822648176567069    0.113197182049087    0.515301570676080  0.0000
  O2     O2        0.278132193886830    0.503430692864284    0.272936951837467  0.0000
  O2     O2        0.744627747937311    0.499538326218689    0.715405391064120  0.0000
  O2     O2        0.776493753487019    0.004684153259396    0.279477257515452  0.0000
  O2     O2        0.233538379253300    0.993659590953487    0.716331547735018  0.0000
  O3     O3        0.397379514940791    0.495943107122892    0.735608724966844  0.0000
  O2     O2        0.636706461525840    0.503281475507246    0.266202777862908  0.0000
  O3     O3        0.908983643108165    0.004687886508416    0.746857871684677  0.0000
  O3     O3        0.131561483847064    0.996433971700675    0.254648018905292  0.0000
