data_c01175.vasp
_audit_creation_method             Generated by GULP
_audit_author_name                 Salvador R. G. Balestra
_symmetry_space_group_name_H-M     'P 1             '
_symmetry_Int_Tables_number        1

loop_
_symmetry_equiv_pos_site_id
_symmetry_equiv_pos_as_xyz
_cell_length_a                       10.2564
_cell_length_b                       15.2275
_cell_length_c                        8.9632
_cell_angle_alpha                   89.8365
_cell_angle_beta                   105.4007
_cell_angle_gamma                   89.9033

loop_
_atom_site_label
_atom_site_type_symbol
_atom_site_fract_x
_atom_site_fract_y
_atom_site_fract_z
_atom_site_charge
  Ge     Ge        0.306699999999978    0.397900000000050    0.331699999999955  0.0000
  Ge     Ge        0.706279400864308    0.397277001913243    0.674821399928853  0.0000
  Ge     Ge        0.608574603059812    0.602815753321078    0.312871150647765  0.0000
  Ge     Ge        0.403129632893111    0.600064127023194    0.694049345070112  0.0000
  Si     Si        0.348774823271707    0.242479248169782    0.903113294123029  0.0000
  Si     Si        0.646555695868648    0.242169163896503    0.104333590810229  0.0000
  Si     Si        0.645720392215346    0.760531062894486    0.104383133427390  0.0000
  Si     Si        0.345702194759517    0.754926670765228    0.904472555479946  0.0000
  Si     Si        0.846561420812949    0.748074243314216    0.896652192475522  0.0000
  Si     Si        0.141203569379921    0.745819098045492    0.110976641093852  0.0000
  Si     Si        0.144653350905493    0.252467504987400    0.112611713996174  0.0000
  Si     Si        0.849285606840033    0.248600109246704    0.896004902629128  0.0000
  Si     Si        0.708294182764195    0.601270624800069    0.677986463278232  0.0000
  Si     Si        0.304578566956254    0.604070872954615    0.331574314979494  0.0000
  Si     Si        0.808615617527007    0.899533203003304    0.330597093353579  0.0000
  Si     Si        0.205139389159802    0.897333045407544    0.675628863410703  0.0000
  Si     Si        0.204476419071133    0.098761572613332    0.679493829394985  0.0000
  Si     Si        0.811645601863161    0.102103606935614    0.331457016636347  0.0000
  Si     Si        0.403659670143075    0.395161752416128    0.695148020940492  0.0000
  Si     Si        0.607889973102929    0.397224904627041    0.308211614267524  0.0000
  Si     Si        0.903113028324372    0.897178419371075    0.685287569692329  0.0000
  Si     Si        0.110210524235862    0.898979054207948    0.319340323937942  0.0000
  Si     Si        0.113454992847269    0.100191766432131    0.322022992610120  0.0000
  Si     Si        0.902237570656341    0.099328608518207    0.687302861226143  0.0000
  O2     O2        0.490415362553186    0.222183431491491    0.024979044775977  0.0000
  O2     O2        0.486695286831888    0.774235358090434    0.028742691323221  0.0000
  O2     O2        0.984337940877406    0.731100000953591    0.027291871786647  0.0000
  O2     O2        0.987845418680786    0.259296473603173    0.025847293617676  0.0000
  O2     O2        0.316888878630749    0.161562246451779    0.783445790646444  0.0000
  O2     O2        0.698599564454709    0.163401758437915    0.224901080621049  0.0000
  O2     O2        0.693148302608069    0.839763802335684    0.224858719896148  0.0000
  O2     O2        0.318087426680286    0.832491368722323    0.776085409289668  0.0000
  O2     O2        0.821159106213605    0.665543603710230    0.781642185344543  0.0000
  O2     O2        0.186535224675861    0.664676409691489    0.227117635695124  0.0000
  O3     O3        0.177793003320041    0.334796813169546    0.224747048828292  0.0000
  O3     O3        0.831380322970030    0.329122734385147    0.778288848692477  0.0000
  O2     O2        0.350184458289647    0.332544075964419    0.810783659524633  0.0000
  O2     O2        0.665139622617116    0.333971180954938    0.195986943813703  0.0000
  O3     O3        0.672591833071994    0.668790976256579    0.194388769293736  0.0000
  O3     O3        0.347201556571228    0.662180302725524    0.823334891096563  0.0000
  O2     O2        0.850238448875705    0.837134294403608    0.802048294009510  0.0000
  O2     O2        0.164965552823411    0.836604133057013    0.206516982677222  0.0000
  O2     O2        0.174303550408416    0.162732474977766    0.213529736383843  0.0000
  O2     O2        0.844482862865041    0.157841487415268    0.802636875673883  0.0000
  O2     O2        0.233928458166009    0.252075257613785    0.991884931350334  0.0000
  O2     O2        0.725278818797988    0.246987818465255    0.973022180732427  0.0000
  O2     O2        0.723053573953120    0.761096272873570    0.971805941908955  0.0000
  O2     O2        0.225278801141471    0.752643581969527    0.985885888145137  0.0000
  O3     O3        0.445248950561034    0.393864367727537    0.257691741133004  0.0000
  O3     O3        0.566016942837152    0.395044383390044    0.745693762588856  0.0000
  O3     O3        0.577003501065013    0.601078548235585    0.743428610572256  0.0000
  O3     O3        0.434404229671405    0.608038291605845    0.263446220280188  0.0000
  O2     O2        0.952612342015933    0.878052923620413    0.299015546725875  0.0000
  O2     O2        0.060317514002547    0.876331249746476    0.704832923835650  0.0000
  O2     O2        0.060226908866456    0.120024907657510    0.710864242720927  0.0000
  O2     O2        0.955815206297656    0.122613779431419    0.299621372420015  0.0000
  O3     O3        0.350796103665450    0.361228409396120    0.520497339774572  0.0000
  O3     O3        0.661355642497589    0.365065533437653    0.484079412518732  0.0000
  O3     O3        0.668750386697306    0.635092456265166    0.502265618953615  0.0000
  O3     O3        0.342976202828716    0.637965146412814    0.507158577015058  0.0000
  O2     O2        0.817494839961565    0.878905440824707    0.509580344983835  0.0000
  O2     O2        0.195863281543262    0.881899555136706    0.495453556423017  0.0000
  O2     O2        0.195699375037232    0.115701670859148    0.499632771103404  0.0000
  O2     O2        0.820331495108936    0.120536558202261    0.510922777689410  0.0000
  O3     O3        0.251826009615838    0.505075621874720    0.328562336594696  0.0000
  O3     O3        0.767199976200026    0.503399319003212    0.684811972964572  0.0000
  O2     O2        0.770885137893256    0.001130183625941    0.292111510409157  0.0000
  O2     O2        0.246130861002378    0.997745762597423    0.721969134498570  0.0000
  O3     O3        0.350071015422453    0.493305867155972    0.706580635459959  0.0000
  O3     O3        0.657017494433768    0.495833561956763    0.292108949703045  0.0000
  O2     O2        0.883409082393532    0.998041805218171    0.727724184430176  0.0000
  O2     O2        0.129094281942191    0.999692194684513    0.273627213182811  0.0000
