data_c01134.vasp
_audit_creation_method             Generated by GULP
_audit_author_name                 Salvador R. G. Balestra
_symmetry_space_group_name_H-M     'P 1             '
_symmetry_Int_Tables_number        1

loop_
_symmetry_equiv_pos_site_id
_symmetry_equiv_pos_as_xyz
_cell_length_a                       10.2581
_cell_length_b                       15.1896
_cell_length_c                        8.9970
_cell_angle_alpha                   90.0346
_cell_angle_beta                   105.6748
_cell_angle_gamma                   89.8895

loop_
_atom_site_label
_atom_site_type_symbol
_atom_site_fract_x
_atom_site_fract_y
_atom_site_fract_z
_atom_site_charge
  Ge     Ge        0.351599999999962    0.244500000000016    0.893900000000031  0.0000
  Ge     Ge        0.080988528491881    0.895619621618523    0.313177173993052  0.0000
  Ge     Ge        0.085620539954770    0.105304320744986    0.316195779310057  0.0000
  Ge     Ge        0.877058844213238    0.104695638476264    0.696769814849008  0.0000
  Si     Si        0.650567302589546    0.252475281106320    0.109833255720946  0.0000
  Si     Si        0.614680595586391    0.758592580665099    0.107650475325587  0.0000
  Si     Si        0.318330986698207    0.754859688086947    0.893933089476692  0.0000
  Si     Si        0.815787239516363    0.746027094667328    0.896297267249319  0.0000
  Si     Si        0.116199680703768    0.741681627770531    0.098313519825340  0.0000
  Si     Si        0.143552466406044    0.258852349212044    0.100884756588644  0.0000
  Si     Si        0.845847970096493    0.263856959681549    0.902204940399446  0.0000
  Si     Si        0.280348187595673    0.402162076669169    0.324952275621465  0.0000
  Si     Si        0.673898433555698    0.400547662963279    0.672450825038792  0.0000
  Si     Si        0.674128158680700    0.603651168315465    0.669332353736598  0.0000
  Si     Si        0.278652571500797    0.603624110120481    0.325348733416982  0.0000
  Si     Si        0.773011534991555    0.901770608297919    0.328399448665566  0.0000
  Si     Si        0.167341827636721    0.895598393019011    0.669842169964534  0.0000
  Si     Si        0.179016725338145    0.102236257717835    0.675654236556483  0.0000
  Si     Si        0.778710880921813    0.103229427511152    0.329526257146100  0.0000
  Si     Si        0.372496650992879    0.402537541051467    0.682171681767797  0.0000
  Si     Si        0.581742600966331    0.401513603632828    0.316397234619847  0.0000
  Si     Si        0.580860007994613    0.604711738467022    0.315203716466776  0.0000
  Si     Si        0.373630007108030    0.605098839789364    0.680478930827548  0.0000
  Si     Si        0.868579885764814    0.898804043768411    0.688089054888627  0.0000
  O3     O3        0.523465661963778    0.235275796009323    0.967719101451300  0.0000
  O2     O2        0.458185250519198    0.772507268739304    0.020302890738166  0.0000
  O2     O2        0.957623530268867    0.728681609029075    0.019253930756839  0.0000
  O2     O2        0.007248754678336    0.277086973427872    0.965517325431376  0.0000
  O3     O3        0.306345338172042    0.151355267214776    0.783334732353462  0.0000
  O2     O2        0.668356723321270    0.169653455949211    0.225687578941310  0.0000
  O2     O2        0.656533320047056    0.839053728652611    0.227039793544522  0.0000
  O2     O2        0.286181457272447    0.841464013633408    0.787152440578546  0.0000
  O2     O2        0.787611804684606    0.664091242661700    0.778642440178231  0.0000
  O2     O2        0.161327608790421    0.664136424943062    0.223606681610251  0.0000
  O2     O2        0.165202831253004    0.338611876061004    0.225087796863492  0.0000
  O2     O2        0.790778472240954    0.341093280789358    0.778628890554631  0.0000
  O3     O3        0.311333001974632    0.339756614708283    0.785279798546590  0.0000
  O2     O2        0.636041264107492    0.341646880508019    0.200627547389799  0.0000
  O2     O2        0.635979778809128    0.666546392038725    0.201339866335921  0.0000
  O2     O2        0.320886906300783    0.668202250539675    0.792925688036709  0.0000
  O2     O2        0.814086613367016    0.834655895161092    0.798621449702706  0.0000
  O3     O3        0.140273365697848    0.833562146818348    0.186050555337832  0.0000
  O3     O3        0.135968180287491    0.167508586846197    0.184321634134066  0.0000
  O3     O3        0.813793587508957    0.171303084353725    0.814755040094722  0.0000
  O3     O3        0.273311461552842    0.253539619969885    0.037358622995377  0.0000
  O2     O2        0.781483410463424    0.266446352850377    0.045919320184405  0.0000
  O2     O2        0.700835037634021    0.755790880710329    0.984535201837488  0.0000
  O2     O2        0.198993489755797    0.736678922853370    0.972277847945975  0.0000
  O2     O2        0.423968398276727    0.380536737795379    0.292242512699278  0.0000
  O2     O2        0.531090170799804    0.378577365106195    0.706495344673592  0.0000
  O2     O2        0.530129225332558    0.626567878153457    0.698374695228913  0.0000
  O2     O2        0.422895266352400    0.625950219146932    0.294825204828061  0.0000
  O3     O3        0.906266839218482    0.891078651819425    0.270948752711878  0.0000
  O2     O2        0.030765691501084    0.889121661155010    0.725524940078353  0.0000
  O3     O3        0.050578361032769    0.117506851114027    0.742752741709405  0.0000
  O3     O3        0.911793009536255    0.106235280535428    0.270799198114948  0.0000
  O2     O2        0.291609476767319    0.386766066281738    0.504269750259471  0.0000
  O2     O2        0.664055557774418    0.381644261601570    0.493000128074458  0.0000
  O2     O2        0.666733648513996    0.622743783661837    0.490982763934563  0.0000
  O2     O2        0.287102514252381    0.620601829050892    0.504491067151875  0.0000
  O2     O2        0.801919821373900    0.875665960357020    0.508535629720769  0.0000
  O3     O3        0.144535100352963    0.857578137559833    0.500171199314413  0.0000
  O3     O3        0.149195732009201    0.140774962164051    0.503679970833269  0.0000
  O3     O3        0.809540086527937    0.132435890022851    0.506017980183451  0.0000
  O2     O2        0.239419823281625    0.502812170434173    0.279978300126666  0.0000
  O2     O2        0.712376182421315    0.502243731943082    0.710035940944996  0.0000
  O2     O2        0.721646649163595    0.003055240194829    0.309786145119606  0.0000
  O2     O2        0.207492817996279    0.997935191721066    0.665663683669280  0.0000
  O2     O2        0.358183579366994    0.504149939014571    0.728082321818734  0.0000
  O2     O2        0.599898554761872    0.503110221036634    0.273643900759997  0.0000
  O3     O3        0.833782328300435    0.997501579394221    0.724874434851254  0.0000
  O1     O1        0.134930173839835    0.999696934872827    0.294769639273794  0.0000
