data_c01163.vasp
_audit_creation_method             Generated by GULP
_audit_author_name                 Salvador R. G. Balestra
_symmetry_space_group_name_H-M     'P 1             '
_symmetry_Int_Tables_number        1

loop_
_symmetry_equiv_pos_site_id
_symmetry_equiv_pos_as_xyz
_cell_length_a                       10.2742
_cell_length_b                       15.2383
_cell_length_c                        8.9365
_cell_angle_alpha                   89.6321
_cell_angle_beta                   105.1614
_cell_angle_gamma                   90.1768

loop_
_atom_site_label
_atom_site_type_symbol
_atom_site_fract_x
_atom_site_fract_y
_atom_site_fract_z
_atom_site_charge
  Ge     Ge        0.306699999999978    0.397900000000050    0.331699999999955  0.0000
  Ge     Ge        0.706698937747763    0.402344995783408    0.677495785176069  0.0000
  Ge     Ge        0.206899146921202    0.100662838810579    0.683425706160762  0.0000
  Ge     Ge        0.399433840463373    0.602151193215960    0.696084431670597  0.0000
  Si     Si        0.353939255423561    0.245518657195296    0.909505732216072  0.0000
  Si     Si        0.649991598348669    0.248831417253065    0.111428654369679  0.0000
  Si     Si        0.655530726635126    0.759647835122610    0.109753047213725  0.0000
  Si     Si        0.359440695722830    0.757089043615013    0.904716129676198  0.0000
  Si     Si        0.859365229395154    0.748366972180499    0.899047035853368  0.0000
  Si     Si        0.154517455937453    0.747898247762082    0.110460585188132  0.0000
  Si     Si        0.142022694639456    0.253409658694433    0.109556024006937  0.0000
  Si     Si        0.847027289126824    0.252247782834210    0.895841256229854  0.0000
  Si     Si        0.706174221239841    0.605049256116839    0.676418276218789  0.0000
  Si     Si        0.301345312504555    0.604400432449510    0.336255956838976  0.0000
  Si     Si        0.801841918324816    0.902357788533094    0.334728916938639  0.0000
  Si     Si        0.199008824033551    0.895243624179822    0.676647293347624  0.0000
  Si     Si        0.809462421550676    0.104089460112703    0.335908971393307  0.0000
  Si     Si        0.404159400600482    0.397154538447810    0.696554284498073  0.0000
  Si     Si        0.605385331043104    0.403046805959635    0.307712238714374  0.0000
  Si     Si        0.602058741064082    0.604295176528827    0.316700154096494  0.0000
  Si     Si        0.899935503904486    0.899849733082491    0.690579243498522  0.0000
  Si     Si        0.101351386676455    0.899659981388157    0.318584139616798  0.0000
  Si     Si        0.111328134615487    0.099656127684363    0.319501290185505  0.0000
  Si     Si        0.900911535109368    0.103234603118410    0.691595650164354  0.0000
  O2     O2        0.492543631799106    0.230939025573362    0.039466307188137  0.0000
  O2     O2        0.513972437590600    0.779677605638310    0.988791427810523  0.0000
  O2     O2        0.012995807941712    0.729184531823919    0.989054680187491  0.0000
  O2     O2        0.986404729252811    0.265291392048504    0.022667048462670  0.0000
  O3     O3        0.332783595727882    0.164421165946329    0.793398917475937  0.0000
  O2     O2        0.702610885007308    0.169336013208112    0.230329380676641  0.0000
  O2     O2        0.688438876703900    0.840111181290959    0.230144515600645  0.0000
  O2     O2        0.311066872946681    0.827095396242568    0.765785827756762  0.0000
  O2     O2        0.815812991081750    0.672903245333219    0.771726816974727  0.0000
  O2     O2        0.188614137311145    0.664490113949859    0.224068121104287  0.0000
  O3     O3        0.179183319733763    0.332989228218544    0.227531002146846  0.0000
  O3     O3        0.829109660031246    0.331149296276588    0.774074774524593  0.0000
  O2     O2        0.351224582356740    0.335272557984029    0.813949843271435  0.0000
  O2     O2        0.671923435618919    0.341663382736793    0.201023968486805  0.0000
  O2     O2        0.651710709581209    0.668948620452894    0.201428163670246  0.0000
  O3     O3        0.346382985682220    0.661240981604453    0.831487522331470  0.0000
  O2     O2        0.843274041218267    0.841834307024506    0.809928810898518  0.0000
  O2     O2        0.152970569854727    0.835986964909949    0.206528310488644  0.0000
  O2     O2        0.164157837831204    0.160949895415128    0.201566307500433  0.0000
  O2     O2        0.838860630412229    0.159831778716580    0.806852530962009  0.0000
  O2     O2        0.231398126175658    0.251405972100917    0.988346540536388  0.0000
  O2     O2        0.724553038126657    0.252951996350078    0.975829595668706  0.0000
  O2     O2        0.769675868240484    0.749649851391982    0.019799982549141  0.0000
  O2     O2        0.270641157632773    0.764116197666003    0.025419072757340  0.0000
  O3     O3        0.444653139332235    0.391038335074041    0.256660687473057  0.0000
  O3     O3        0.565777795549162    0.397805013710379    0.746797358202656  0.0000
  O3     O3        0.572359498537395    0.609362962102336    0.735625562541758  0.0000
  O2     O2        0.440871776581607    0.608852102777897    0.284082953945844  0.0000
  O2     O2        0.945586252081918    0.878435807001624    0.305947763100413  0.0000
  O2     O2        0.053319430804601    0.871436241723966    0.703575363641450  0.0000
  O3     O3        0.053451283524890    0.132367659442583    0.709752515965500  0.0000
  O2     O2        0.957344598103126    0.123860156091256    0.314914848153261  0.0000
  O3     O3        0.350492576533038    0.362708825926302    0.521983281557426  0.0000
  O3     O3        0.662273200495313    0.374741739773864    0.484545047465458  0.0000
  O2     O2        0.670638691559104    0.630239988072152    0.493819903927868  0.0000
  O3     O3        0.327080615151607    0.638846273083835    0.510006081147136  0.0000
  O2     O2        0.808610217542124    0.886350363986117    0.515394361995052  0.0000
  O2     O2        0.190285174282566    0.887965310352567    0.494389705137179  0.0000
  O3     O3        0.204109447679613    0.113165219989704    0.490588932054133  0.0000
  O2     O2        0.812546610232789    0.118815012333104    0.515248480809609  0.0000
  O3     O3        0.250922904025151    0.504845155403419    0.324984757170457  0.0000
  O3     O3        0.768014859825997    0.508334514979013    0.698967727278163  0.0000
  O2     O2        0.765911972234670    0.003814359051018    0.289423635262493  0.0000
  O3     O3        0.239749598247512    0.992344147462059    0.735454752627413  0.0000
  O3     O3        0.350424165081717    0.494782808921070    0.707798480864736  0.0000
  O2     O2        0.643186857931702    0.505009824482033    0.285253092627993  0.0000
  O2     O2        0.895725055253211    0.001154444828977    0.737909107300079  0.0000
  O2     O2        0.117682174267970    0.999305077782296    0.265021837347815  0.0000
