data_c01119.vasp
_audit_creation_method             Generated by GULP
_audit_author_name                 Salvador R. G. Balestra
_symmetry_space_group_name_H-M     'P 1             '
_symmetry_Int_Tables_number        1

loop_
_symmetry_equiv_pos_site_id
_symmetry_equiv_pos_as_xyz
_cell_length_a                       10.1915
_cell_length_b                       15.2478
_cell_length_c                        8.9781
_cell_angle_alpha                   90.4705
_cell_angle_beta                   105.3918
_cell_angle_gamma                   89.8397

loop_
_atom_site_label
_atom_site_type_symbol
_atom_site_fract_x
_atom_site_fract_y
_atom_site_fract_z
_atom_site_charge
  Ge     Ge        0.351599999999962    0.244500000000016    0.893900000000031  0.0000
  Ge     Ge        0.623220621422868    0.597239582716707    0.310512529888955  0.0000
  Ge     Ge        0.910800812737492    0.897129938841695    0.686353810465141  0.0000
  Ge     Ge        0.122508848638553    0.893409144605522    0.311430352219614  0.0000
  Si     Si        0.653052533274988    0.236270220521904    0.111896547317838  0.0000
  Si     Si        0.649126577862632    0.754883331837792    0.103056171802237  0.0000
  Si     Si        0.352309717277473    0.749977239083444    0.894164520955119  0.0000
  Si     Si        0.851528886344186    0.744278381898765    0.897860031460374  0.0000
  Si     Si        0.150416742354623    0.735519123823183    0.100089949488688  0.0000
  Si     Si        0.146424387456169    0.255388058656743    0.107922332602570  0.0000
  Si     Si        0.851259039013374    0.253350939150675    0.899428792030197  0.0000
  Si     Si        0.319022069280192    0.394868262208532    0.330635870778927  0.0000
  Si     Si        0.712136130866790    0.398074914204697    0.677239226020967  0.0000
  Si     Si        0.717601289390327    0.598740218713971    0.670988096195749  0.0000
  Si     Si        0.315102378173768    0.598763853068601    0.324991035743343  0.0000
  Si     Si        0.813506953025128    0.893491654183188    0.329857100044919  0.0000
  Si     Si        0.219418890999697    0.895212138390118    0.670217451836698  0.0000
  Si     Si        0.216790750526223    0.096955948025271    0.666387910812344  0.0000
  Si     Si        0.820544405398552    0.097341116412674    0.331956979235563  0.0000
  Si     Si        0.408828567135966    0.399300311807702    0.686000506571817  0.0000
  Si     Si        0.621738795972317    0.392141017166291    0.317726916944889  0.0000
  Si     Si        0.410885006278011    0.601984515031142    0.676980735294064  0.0000
  Si     Si        0.118224919578857    0.097483520412976    0.308169500403118  0.0000
  Si     Si        0.917561970477187    0.103569968109891    0.688154607900302  0.0000
  O3     O3        0.494284614279555    0.224389165048097    0.039357994849081  0.0000
  O2     O2        0.487624041642505    0.763452613934907    0.031446255974411  0.0000
  O2     O2        0.989184654581953    0.726018370282070    0.029377281066663  0.0000
  O2     O2        0.985919107557513    0.270860247545128    0.035802622936512  0.0000
  O3     O3        0.333008903712083    0.160306972244616    0.759813365121739  0.0000
  O2     O2        0.702166086174829    0.154569263929451    0.224428070651217  0.0000
  O2     O2        0.694243534673059    0.837544170715103    0.216934495666094  0.0000
  O2     O2        0.331175618553104    0.835055851995909    0.785566236675897  0.0000
  O2     O2        0.827908864904549    0.663529652858454    0.777066955188668  0.0000
  O2     O2        0.194203852099194    0.654897479828910    0.217229586387708  0.0000
  O2     O2        0.201668005652857    0.336264824472347    0.223118978903025  0.0000
  O2     O2        0.824804034248255    0.335402035873541    0.782938764354426  0.0000
  O3     O3        0.354188365145276    0.343967023405854    0.804400885694541  0.0000
  O2     O2        0.682329568182608    0.325344110558073    0.214333082608526  0.0000
  O3     O3        0.685344016349386    0.664652873357702    0.194427112556229  0.0000
  O2     O2        0.361391365056775    0.663047669926094    0.795763640878625  0.0000
  O3     O3        0.859368029378599    0.836300066807227    0.818598021623597  0.0000
  O3     O3        0.183514753302113    0.826894519316791    0.190559617238840  0.0000
  O2     O2        0.175317272179434    0.165464921654246    0.205348385848148  0.0000
  O2     O2        0.862394681900787    0.166572295122707    0.801189276237837  0.0000
  O3     O3        0.214031224887705    0.249262104371688    0.968865913988905  0.0000
  O2     O2        0.726160882209054    0.240713209508492    0.974328210786443  0.0000
  O2     O2        0.723791415952727    0.753265090110615    0.968118537596459  0.0000
  O2     O2        0.225232523782541    0.734530744214918    0.964143921084952  0.0000
  O2     O2        0.463019234859718    0.369712538217819    0.299349659406275  0.0000
  O2     O2        0.566558634081608    0.375114903650802    0.705014680061307  0.0000
  O2     O2        0.566568886471433    0.622652921151148    0.683119890627953  0.0000
  O3     O3        0.456432884216198    0.625834263915593    0.294194420782485  0.0000
  O3     O3        0.959289900426318    0.863713457268074    0.311228410475096  0.0000
  O3     O3        0.071338015143712    0.866396898544377    0.680256878331841  0.0000
  O2     O2        0.073367636069533    0.127611002670138    0.695729220267480  0.0000
  O2     O2        0.963586434904132    0.124248802834835    0.301797029088279  0.0000
  O2     O2        0.324220327528511    0.379026173688382    0.509429957266689  0.0000
  O2     O2        0.705752494230556    0.384424101773410    0.497110417808863  0.0000
  O3     O3        0.722646647852863    0.610759419284734    0.497060936828945  0.0000
  O2     O2        0.318901485321089    0.618675273889898    0.503456438655269  0.0000
  O3     O3        0.805039801402443    0.880605855888272    0.503501324437523  0.0000
  O3     O3        0.228178092054165    0.884240730717272    0.496063606845884  0.0000
  O2     O2        0.209105180130462    0.101289918111173    0.485082709497070  0.0000
  O2     O2        0.825556844643047    0.112792639008888    0.511533559918372  0.0000
  O2     O2        0.286524502211145    0.496124601603330    0.287596832346219  0.0000
  O2     O2        0.752893795778458    0.498539165704274    0.724710226186012  0.0000
  O2     O2        0.791179790728842    0.995955858007009    0.286771951696446  0.0000
  O2     O2        0.246119119920858    0.996857834236162    0.722755664439909  0.0000
  O2     O2        0.395521805986835    0.501854065690755    0.724362925793167  0.0000
  O3     O3        0.633743430332942    0.489081938868219    0.257655598853783  0.0000
  O3     O3        0.907936356861917    0.005190413114292    0.742845367333038  0.0000
  O3     O3        0.124413419564276    0.999724149161748    0.245951674518128  0.0000
