data_c01144.vasp
_audit_creation_method             Generated by GULP
_audit_author_name                 Salvador R. G. Balestra
_symmetry_space_group_name_H-M     'P 1             '
_symmetry_Int_Tables_number        1

loop_
_symmetry_equiv_pos_site_id
_symmetry_equiv_pos_as_xyz
_cell_length_a                       10.2528
_cell_length_b                       15.1941
_cell_length_c                        8.9451
_cell_angle_alpha                   90.5387
_cell_angle_beta                   105.0003
_cell_angle_gamma                   90.1961

loop_
_atom_site_label
_atom_site_type_symbol
_atom_site_fract_x
_atom_site_fract_y
_atom_site_fract_z
_atom_site_charge
  Ge     Ge        0.306699999999978    0.397900000000050    0.331699999999955  0.0000
  Ge     Ge        0.714703563306922    0.403791222741224    0.672978175256828  0.0000
  Ge     Ge        0.711263499648058    0.614510211221517    0.659764738165363  0.0000
  Ge     Ge        0.904254903216595    0.904348378533602    0.692698796299128  0.0000
  Si     Si        0.370451304553955    0.248147580201633    0.898037492625531  0.0000
  Si     Si        0.667401483469271    0.244170990867174    0.098384616777517  0.0000
  Si     Si        0.665280005156597    0.750443508033991    0.097197112355058  0.0000
  Si     Si        0.372146265097649    0.763904073447751    0.894549720481975  0.0000
  Si     Si        0.876965771681780    0.749541250046082    0.899887771871909  0.0000
  Si     Si        0.173077216292557    0.748981124682538    0.109625719769283  0.0000
  Si     Si        0.167143899753778    0.249469568929598    0.107154678679796  0.0000
  Si     Si        0.873143524469770    0.260268296846658    0.890624135536976  0.0000
  Si     Si        0.305365146553264    0.600291772645889    0.329266220221260  0.0000
  Si     Si        0.811613238835863    0.895411471005210    0.329909360025189  0.0000
  Si     Si        0.209930525593857    0.904136785635349    0.676560695590982  0.0000
  Si     Si        0.202675081354816    0.108588557442115    0.667842736240173  0.0000
  Si     Si        0.810695742412139    0.098209532599502    0.316949147435036  0.0000
  Si     Si        0.412247851657328    0.404425060993715    0.700367817345882  0.0000
  Si     Si        0.610305808682976    0.395903906463347    0.309161456688164  0.0000
  Si     Si        0.604550411298288    0.599092947732912    0.301229281886334  0.0000
  Si     Si        0.407982226003456    0.607868266416279    0.688889946230963  0.0000
  Si     Si        0.116285853046422    0.898214127371800    0.322500273521503  0.0000
  Si     Si        0.113260178379428    0.100137533819252    0.312089320852815  0.0000
  Si     Si        0.900164854438255    0.109255631580705    0.675168449381749  0.0000
  O2     O2        0.525692003667832    0.225559260765235    0.975664964200230  0.0000
  O2     O2        0.529478614042790    0.779674594937377    0.974559556402239  0.0000
  O2     O2        0.031556986465793    0.731335154185385    0.987486954954926  0.0000
  O2     O2        0.029751505396474    0.260275229035414    0.977141323762980  0.0000
  O2     O2        0.315824269175085    0.172117642335813    0.770625128549392  0.0000
  O2     O2        0.698332953127113    0.160733994691010    0.212638552244581  0.0000
  O2     O2        0.705392617353040    0.828357456540425    0.223884677030123  0.0000
  O2     O2        0.328522183802412    0.847008780935361    0.783267478656464  0.0000
  O3     O3        0.837812251117823    0.684222792480581    0.754366576846690  0.0000
  O2     O2        0.201261690995061    0.668861881600497    0.229128577365767  0.0000
  O3     O3        0.183227936143401    0.327435701550667    0.231277787809760  0.0000
  O3     O3        0.844776443472331    0.346458887081038    0.789399685895852  0.0000
  O2     O2        0.355241836236653    0.343192663185417    0.816087478617735  0.0000
  O2     O2        0.666799293532435    0.334399430070613    0.193398087636547  0.0000
  O2     O2        0.642775586492617    0.657270030048135    0.170301147334427  0.0000
  O2     O2        0.346368988999219    0.673199557892966    0.795295146393573  0.0000
  O3     O3        0.854186667322969    0.847170068212734    0.832712599419572  0.0000
  O2     O2        0.170948088731538    0.838743763045315    0.204666495200237  0.0000
  O2     O2        0.171774010990680    0.156850182407921    0.194692448460631  0.0000
  O2     O2        0.835950053305461    0.177047807764090    0.773423713728512  0.0000
  O2     O2        0.291319106522952    0.250473821003279    0.029768432161560  0.0000
  O2     O2        0.783753750572832    0.254968730872261    0.011724945353939  0.0000
  O2     O2        0.783183078922366    0.732694588445102    0.014406139027968  0.0000
  O2     O2        0.290894455115322    0.758675028669742    0.024266705575553  0.0000
  O3     O3        0.449621544844379    0.386808290092008    0.266698576781958  0.0000
  O3     O3        0.572539597942879    0.394269370731237    0.740635070924679  0.0000
  O3     O3        0.567294378508614    0.623791942152515    0.724832005662679  0.0000
  O2     O2        0.443560350300334    0.598702684465121    0.275940169135629  0.0000
  O2     O2        0.961636666356263    0.873893615390299    0.314020299899565  0.0000
  O3     O3        0.069377892627107    0.875710308366062    0.706769595950699  0.0000
  O2     O2        0.057393296995177    0.132807804659016    0.693156872599931  0.0000
  O2     O2        0.955973079766203    0.122288108632238    0.289765201465529  0.0000
  O3     O3        0.345028320480630    0.374628694673170    0.525915648459102  0.0000
  O3     O3        0.675327933424507    0.366960815404077    0.483399544732459  0.0000
  O3     O3        0.675941371514673    0.640472788630202    0.466045886401128  0.0000
  O2     O2        0.338080588156240    0.628046195682670    0.509653549961673  0.0000
  O3     O3        0.808232984989233    0.884093860155046    0.506045218095164  0.0000
  O2     O2        0.206263277910367    0.885649835619635    0.497154486641786  0.0000
  O2     O2        0.197909415100843    0.121364543200809    0.487584210653142  0.0000
  O2     O2        0.816132551567498    0.114542891515010    0.496355832328355  0.0000
  O3     O3        0.243072716064352    0.503486917821529    0.305276432442668  0.0000
  O1     O1        0.769416932932925    0.509763592114516    0.683830685642590  0.0000
  O2     O2        0.773941502950119    0.995825330530440    0.275653761237991  0.0000
  O2     O2        0.237459602509912    0.007630901620846    0.715650976506052  0.0000
  O2     O2        0.377123475961088    0.506841281001349    0.724788863985340  0.0000
  O2     O2        0.651527490318548    0.498067489184636    0.290338164648717  0.0000
  O3     O3        0.889004547698450    0.013002013553630    0.738273077532311  0.0000
  O2     O2        0.128280199493995    0.998287463126465    0.270913450780373  0.0000
