data_c01101.vasp
_audit_creation_method             Generated by GULP
_audit_author_name                 Salvador R. G. Balestra
_symmetry_space_group_name_H-M     'P 1             '
_symmetry_Int_Tables_number        1

loop_
_symmetry_equiv_pos_site_id
_symmetry_equiv_pos_as_xyz
_cell_length_a                       10.1973
_cell_length_b                       15.2137
_cell_length_c                        9.0018
_cell_angle_alpha                   90.3087
_cell_angle_beta                   105.4498
_cell_angle_gamma                   89.7800

loop_
_atom_site_label
_atom_site_type_symbol
_atom_site_fract_x
_atom_site_fract_y
_atom_site_fract_z
_atom_site_charge
  Ge     Ge        0.351599999999962    0.244500000000016    0.893900000000031  0.0000
  Ge     Ge        0.622309738415477    0.393328001918114    0.312029592958507  0.0000
  Ge     Ge        0.619378824633703    0.602758276560584    0.309518444344354  0.0000
  Ge     Ge        0.910862260131952    0.895629596995341    0.679808999588427  0.0000
  Si     Si        0.655381444339690    0.237213754040814    0.104263387093949  0.0000
  Si     Si        0.652296563332209    0.758074174279562    0.098190755027219  0.0000
  Si     Si        0.353890944791535    0.750860298730085    0.891723430473074  0.0000
  Si     Si        0.852825877916447    0.743831733349337    0.892138910368806  0.0000
  Si     Si        0.150753526146596    0.738975150209017    0.101005870928585  0.0000
  Si     Si        0.145967115711232    0.255258691566905    0.107104854616392  0.0000
  Si     Si        0.852499920038029    0.251674882102210    0.896600587348683  0.0000
  Si     Si        0.316660385815584    0.394671879666875    0.328165505690048  0.0000
  Si     Si        0.713231231092176    0.397986925408025    0.676392291950840  0.0000
  Si     Si        0.714271448358168    0.598666118582911    0.670744873593095  0.0000
  Si     Si        0.314601619260949    0.601131906580900    0.326449574068199  0.0000
  Si     Si        0.816930556181125    0.896831336989406    0.322964048736649  0.0000
  Si     Si        0.218900597337243    0.893585810810548    0.663868115244654  0.0000
  Si     Si        0.222188768652802    0.096248691809889    0.664805799163790  0.0000
  Si     Si        0.823594726432763    0.100416293299376    0.329473337220393  0.0000
  Si     Si        0.408486823042025    0.398508257724728    0.681820247100099  0.0000
  Si     Si        0.409523274395625    0.601793976363072    0.678021636880343  0.0000
  Si     Si        0.122431879079042    0.895255906937224    0.309233420144385  0.0000
  Si     Si        0.123625109983106    0.096976142871870    0.308511719649334  0.0000
  Si     Si        0.920702939034237    0.103769220422216    0.683393291849756  0.0000
  O3     O3        0.494626423924323    0.228047399457010    0.040794562078460  0.0000
  O2     O2        0.491163339351374    0.766454952633943    0.024662899611647  0.0000
  O2     O2        0.992401819313815    0.725951842619947    0.020364263134244  0.0000
  O2     O2        0.984653396926480    0.268187145325785    0.036622091371884  0.0000
  O3     O3        0.336579888048363    0.158541627187472    0.764030731700156  0.0000
  O2     O2        0.705329763218723    0.158017498266751    0.223429641903761  0.0000
  O2     O2        0.700896871000895    0.844239669102894    0.201651312985883  0.0000
  O2     O2        0.332926799902353    0.831015779606809    0.770958373181211  0.0000
  O2     O2        0.828146212340493    0.662995747408763    0.771925935561175  0.0000
  O2     O2        0.193694627466928    0.657238343611671    0.216411437664514  0.0000
  O2     O2        0.195226876095006    0.337025282994670    0.222642164814484  0.0000
  O2     O2        0.825439096146796    0.336749779831955    0.787379907862938  0.0000
  O3     O3        0.355137969473847    0.343020038371327    0.801055543528110  0.0000
  O3     O3        0.691529789942125    0.327579543597154    0.197318660180138  0.0000
  O3     O3        0.687919239140121    0.672737646121363    0.202885676546825  0.0000
  O2     O2        0.359057816511508    0.660309210041409    0.800233861981555  0.0000
  O3     O3        0.854410946520500    0.835760083268207    0.809308084091416  0.0000
  O2     O2        0.174817211619661    0.830852478420581    0.195674334212773  0.0000
  O2     O2        0.178279528989260    0.162896230537243    0.200010793586993  0.0000
  O2     O2        0.868555491233568    0.166713188232042    0.797466228588117  0.0000
  O3     O3        0.214084537851419    0.252332441863086    0.968358235572345  0.0000
  O2     O2        0.723889717483624    0.233736591568045    0.963135303992029  0.0000
  O2     O2        0.726437277020038    0.749223892556447    0.964386209909359  0.0000
  O2     O2        0.231385604582470    0.742913698565461    0.971132962456582  0.0000
  O3     O3        0.456201036586931    0.362107255581916    0.298185984384694  0.0000
  O2     O2        0.563647843170385    0.371774275796744    0.690485333726723  0.0000
  O2     O2        0.563664428257209    0.626283181425439    0.681428346774345  0.0000
  O3     O3        0.454641873427943    0.634182364355892    0.300069845997601  0.0000
  O2     O2        0.965519463209670    0.875206752751101    0.299829632644733  0.0000
  O3     O3        0.076831596339636    0.868092190490330    0.693213547464765  0.0000
  O2     O2        0.079608912915500    0.121752063843607    0.700194814796184  0.0000
  O2     O2        0.966412210278084    0.120039238461496    0.292368362895116  0.0000
  O2     O2        0.318305370501195    0.382099522150315    0.506799793948241  0.0000
  O3     O3        0.717512154328102    0.387053997288283    0.501589649990712  0.0000
  O3     O3        0.719822057728854    0.605915599127231    0.496815137912164  0.0000
  O2     O2        0.314561187987767    0.616601376222621    0.504843621648572  0.0000
  O3     O3        0.814944096705337    0.873130025505371    0.494646151239868  0.0000
  O2     O2        0.212854418707711    0.879853989635407    0.483774467502430  0.0000
  O2     O2        0.210980934524895    0.109772203993253    0.484379033049620  0.0000
  O2     O2        0.834906973959964    0.122397109586308    0.507703591921406  0.0000
  O2     O2        0.295704580783283    0.497750412145231    0.284593944992054  0.0000
  O2     O2        0.746293335845191    0.498871716520376    0.729833260907289  0.0000
  O2     O2        0.783910991459809    0.999418838359803    0.294733462877653  0.0000
  O2     O2        0.256268082245201    0.994711518872487    0.709942593787368  0.0000
  O2     O2        0.400874324658106    0.500885724054803    0.726323638596373  0.0000
  O1     O1        0.622935018976353    0.497750571706435    0.244610511668214  0.0000
  O3     O3        0.898378356189631    0.004589086279885    0.726107224183819  0.0000
  O2     O2        0.138123558336871    0.995808279988175    0.257819814615790  0.0000
