data_c01114.vasp
_audit_creation_method             Generated by GULP
_audit_author_name                 Salvador R. G. Balestra
_symmetry_space_group_name_H-M     'P 1             '
_symmetry_Int_Tables_number        1

loop_
_symmetry_equiv_pos_site_id
_symmetry_equiv_pos_as_xyz
_cell_length_a                       10.2037
_cell_length_b                       15.2703
_cell_length_c                        8.9619
_cell_angle_alpha                   89.9922
_cell_angle_beta                   105.4253
_cell_angle_gamma                   90.0716

loop_
_atom_site_label
_atom_site_type_symbol
_atom_site_fract_x
_atom_site_fract_y
_atom_site_fract_z
_atom_site_charge
  Ge     Ge        0.351599999999962    0.244500000000016    0.893900000000031  0.0000
  Ge     Ge        0.626490602930182    0.392327747699001    0.313881629433992  0.0000
  Ge     Ge        0.123946427801146    0.095127776769268    0.302164245040868  0.0000
  Ge     Ge        0.919701562216013    0.095973890060070    0.688349932663495  0.0000
  Si     Si        0.650109699201028    0.233757405773095    0.109365421450884  0.0000
  Si     Si        0.661812703451623    0.752050446715556    0.102052118126768  0.0000
  Si     Si        0.363858569539030    0.749729101878418    0.890866025554531  0.0000
  Si     Si        0.863949217646321    0.737810219457002    0.890719709993733  0.0000
  Si     Si        0.160422083112347    0.735062684119544    0.100314259429285  0.0000
  Si     Si        0.146262841149985    0.256513233201325    0.100767101000785  0.0000
  Si     Si        0.847817161766093    0.247233376526520    0.901319662693748  0.0000
  Si     Si        0.317802820285844    0.393223262290844    0.326512381461758  0.0000
  Si     Si        0.719247041410806    0.394808467026275    0.676782492239361  0.0000
  Si     Si        0.719513059843502    0.595223952319118    0.667543256924620  0.0000
  Si     Si        0.324234461200605    0.596786262218756    0.325311607008741  0.0000
  Si     Si        0.824518718636347    0.891847540643727    0.328377535254187  0.0000
  Si     Si        0.221041892551849    0.893193610221020    0.665259067704893  0.0000
  Si     Si        0.224394016423034    0.094362015637217    0.672304665426541  0.0000
  Si     Si        0.820853874236379    0.094231750205539    0.322317579594542  0.0000
  Si     Si        0.413034227123672    0.397505759061727    0.681384261836060  0.0000
  Si     Si        0.625583279949939    0.596718053218840    0.308454183574175  0.0000
  Si     Si        0.417633693577667    0.600042158872095    0.679113112736768  0.0000
  Si     Si        0.917016176937903    0.890591510073727    0.682325856347878  0.0000
  Si     Si        0.127577650593664    0.891005403403993    0.308041531825477  0.0000
  O3     O3        0.488766491389474    0.228136950210458    0.049117448865528  0.0000
  O2     O2        0.505065264029519    0.767985112203481    0.015838170163684  0.0000
  O2     O2        0.004163399140784    0.717419087684944    0.015410059279083  0.0000
  O2     O2        0.982708435633305    0.262338335673762    0.040068518287288  0.0000
  O3     O3        0.340909974151086    0.157222350374385    0.769512332721939  0.0000
  O2     O2        0.696361710466358    0.150413432317828    0.220521851343025  0.0000
  O2     O2        0.709542297951189    0.833340988460701    0.217009247188005  0.0000
  O2     O2        0.333654858866165    0.830447823121327    0.771098618453965  0.0000
  O2     O2        0.834311350169221    0.658777954987658    0.767570450202789  0.0000
  O2     O2        0.207187594011978    0.654514451058789    0.216571966256230  0.0000
  O2     O2        0.195911180732014    0.336115645754739    0.221141357138694  0.0000
  O2     O2        0.827568433111399    0.331514068180891    0.788603102655752  0.0000
  O3     O3        0.361631161745709    0.342489235059378    0.802609958587172  0.0000
  O3     O3        0.692858506115483    0.323316341226889    0.203046867816759  0.0000
  O2     O2        0.682741181614551    0.663033775115048    0.202094793406524  0.0000
  O2     O2        0.365635165514233    0.660033344254093    0.797632555678757  0.0000
  O2     O2        0.870168656576380    0.827931604440828    0.801178689952812  0.0000
  O2     O2        0.178696315125949    0.824974366927985    0.197050622111178  0.0000
  O3     O3        0.188281430885638    0.165029872698964    0.190007457565204  0.0000
  O3     O3        0.855035548851150    0.159430074791549    0.807865593338205  0.0000
  O3     O3        0.208002904379608    0.259915157934445    0.956301385661076  0.0000
  O2     O2        0.716927111318423    0.234967441509965    0.966351749854815  0.0000
  O2     O2        0.745627360371284    0.745550085068807    0.975809256171372  0.0000
  O2     O2        0.245251780368256    0.741080311490697    0.975050831127780  0.0000
  O3     O3        0.458158562844282    0.365075083562605    0.293653824645811  0.0000
  O2     O2        0.568518801862150    0.373043574230485    0.690987495123325  0.0000
  O2     O2        0.574681080500472    0.621829871201474    0.693723640366172  0.0000
  O2     O2        0.468691260059467    0.620260116132423    0.295002137318518  0.0000
  O2     O2        0.965081196509042    0.882939527317320    0.280345321428125  0.0000
  O2     O2        0.079525921018076    0.884679962748841    0.710682574724694  0.0000
  O3     O3        0.093598226894402    0.107351622017903    0.737998273283242  0.0000
  O3     O3        0.949623096919982    0.106043584123496    0.254727723147864  0.0000
  O2     O2        0.323720282912517    0.377830508024857    0.506572797409820  0.0000
  O3     O3        0.722415169697897    0.379896134792800    0.502095433340873  0.0000
  O2     O2        0.713691628946968    0.604270954150950    0.486876553160538  0.0000
  O2     O2        0.329200543174951    0.616976418424405    0.503498432943558  0.0000
  O2     O2        0.844500302818095    0.861876612993361    0.505712288519605  0.0000
  O2     O2        0.201747932589891    0.868060449602345    0.486335549829724  0.0000
  O3     O3        0.188746471929637    0.121126417899012    0.493897413715823  0.0000
  O3     O3        0.854881856395445    0.126336666835262    0.498215804042509  0.0000
  O2     O2        0.290123132818183    0.495414872275558    0.285600223179291  0.0000
  O2     O2        0.756999424642219    0.495841186696040    0.723163725729759  0.0000
  O2     O2        0.776499174391911    0.992319592274926    0.313294429428166  0.0000
  O2     O2        0.272573375084895    0.993121520812393    0.690977016927705  0.0000
  O2     O2        0.401706980314003    0.499437612661537    0.723173164097053  0.0000
  O3     O3        0.636610119124468    0.498688864028186    0.252356159298178  0.0000
  O3     O3        0.877005911861393    0.988372170495614    0.712818895975006  0.0000
  O3     O3        0.164536243282976    0.988358211506994    0.268840133527133  0.0000
