data_c01110.vasp
_audit_creation_method             Generated by GULP
_audit_author_name                 Salvador R. G. Balestra
_symmetry_space_group_name_H-M     'P 1             '
_symmetry_Int_Tables_number        1

loop_
_symmetry_equiv_pos_site_id
_symmetry_equiv_pos_as_xyz
_cell_length_a                       10.2250
_cell_length_b                       15.2617
_cell_length_c                        8.9617
_cell_angle_alpha                   90.2941
_cell_angle_beta                   105.3844
_cell_angle_gamma                   89.7729

loop_
_atom_site_label
_atom_site_type_symbol
_atom_site_fract_x
_atom_site_fract_y
_atom_site_fract_z
_atom_site_charge
  Ge     Ge        0.351599999999962    0.244500000000016    0.893900000000031  0.0000
  Ge     Ge        0.624238816774975    0.394646672555377    0.310858942859821  0.0000
  Ge     Ge        0.912652693568264    0.895102434568428    0.686310268615565  0.0000
  Ge     Ge        0.124258931609082    0.096879826084306    0.306145981044581  0.0000
  Si     Si        0.653433055299357    0.236541346505962    0.106123268543878  0.0000
  Si     Si        0.674593416769828    0.751901028881819    0.102975005071840  0.0000
  Si     Si        0.377661391103100    0.753174294837224    0.889206540615665  0.0000
  Si     Si        0.874844660573607    0.738593631102602    0.892884139014354  0.0000
  Si     Si        0.173490490566886    0.739273199686759    0.098064690871149  0.0000
  Si     Si        0.145690794614962    0.256693912997336    0.101506516126285  0.0000
  Si     Si        0.850716425871474    0.250163544321235    0.897163177342217  0.0000
  Si     Si        0.315704770302931    0.394615966691065    0.324723867996548  0.0000
  Si     Si        0.715686474015000    0.397190239814823    0.675122489718917  0.0000
  Si     Si        0.713919617569299    0.598390028470109    0.668553221306413  0.0000
  Si     Si        0.318169973442044    0.597458011108771    0.323920038126801  0.0000
  Si     Si        0.817499300215511    0.896717797964607    0.325382565608188  0.0000
  Si     Si        0.216260983157043    0.891541646359534    0.665428770428212  0.0000
  Si     Si        0.220765447517730    0.094434289906577    0.668441634623715  0.0000
  Si     Si        0.820077349594681    0.098797033497554    0.328236325432466  0.0000
  Si     Si        0.410873179370462    0.398250301310646    0.680814560763832  0.0000
  Si     Si        0.620348042020731    0.599233711607752    0.310414875962249  0.0000
  Si     Si        0.411857551992488    0.600722356333072    0.678775218607993  0.0000
  Si     Si        0.120255420640645    0.892024186338472    0.309509731497145  0.0000
  Si     Si        0.919941635643319    0.100924864824428    0.685297629359527  0.0000
  O3     O3        0.493027505803655    0.228297697294151    0.043109554846551  0.0000
  O2     O2        0.533745403227386    0.767449386490169    0.977113756965660  0.0000
  O2     O2        0.032972280729944    0.722600772578288    0.972082107842963  0.0000
  O2     O2        0.983120720498378    0.265196733147076    0.037597727231287  0.0000
  O3     O3        0.335259507464139    0.153917714012073    0.775380911247090  0.0000
  O2     O2        0.699514711221548    0.158542872219457    0.229342421615445  0.0000
  O2     O2        0.704672298421472    0.837816643687721    0.210784860357999  0.0000
  O2     O2        0.336480563622021    0.832671209633071    0.768802555051647  0.0000
  O2     O2        0.828951515133758    0.662146186656799    0.765655747125933  0.0000
  O2     O2        0.203650936418298    0.657251031781072    0.214359138617557  0.0000
  O2     O2        0.195007690463212    0.335293330333823    0.224293508991432  0.0000
  O2     O2        0.824914755044299    0.336195652119998    0.790288591892386  0.0000
  O3     O3        0.358377656001709    0.341136473647115    0.798013601838678  0.0000
  O3     O3        0.689684174431181    0.328951011886133    0.193004000429492  0.0000
  O2     O2        0.674406217354131    0.666848069028639    0.206396491324067  0.0000
  O2     O2        0.356279856475956    0.661646303246085    0.794682587254431  0.0000
  O3     O3        0.851206722715218    0.832003431600891    0.810054341883407  0.0000
  O2     O2        0.169732690365753    0.827147659620060    0.195388492812780  0.0000
  O3     O3        0.184327268817163    0.164159896762977    0.187130024735261  0.0000
  O2     O2        0.866352282418813    0.166104581709337    0.795569063011381  0.0000
  O3     O3        0.211068539628186    0.261010558785002    0.960297454114587  0.0000
  O2     O2        0.723555179303350    0.230536287604667    0.965517096230710  0.0000
  O2     O2        0.792920516737077    0.734772619042458    0.020965039604218  0.0000
  O2     O2        0.290613763277221    0.751487474808915    0.012544937150250  0.0000
  O3     O3        0.455585147001389    0.368522952780640    0.288423071755784  0.0000
  O2     O2        0.566997408146225    0.374818706880667    0.693446112455650  0.0000
  O2     O2        0.569117920253315    0.623505093185677    0.696706235916500  0.0000
  O2     O2        0.462901613533071    0.619440972178999    0.295436583475524  0.0000
  O2     O2        0.966525897562135    0.870451892995144    0.310818412567461  0.0000
  O3     O3        0.075375581544732    0.861430627756511    0.693201924278182  0.0000
  O2     O2        0.074233846267201    0.124781683108314    0.688524327920950  0.0000
  O3     O3        0.960071717617508    0.127759653834197    0.297422270184782  0.0000
  O2     O2        0.324580498450382    0.379298628828991    0.505070581203880  0.0000
  O3     O3        0.717101192950342    0.380233883462342    0.500013065762729  0.0000
  O2     O2        0.707303171025394    0.609164220844370    0.488360645889409  0.0000
  O2     O2        0.324144596224335    0.617169314379696    0.502795984411970  0.0000
  O3     O3        0.811431588416153    0.883504562641337    0.499718039729055  0.0000
  O2     O2        0.214227914777393    0.882223491237353    0.484873717017117  0.0000
  O3     O3        0.224050439102675    0.106811036597581    0.492939039403794  0.0000
  O2     O2        0.826722217227939    0.109118222347223    0.509697082760194  0.0000
  O2     O2        0.282029865807929    0.496334848282440    0.282911081604363  0.0000
  O2     O2        0.752215239890729    0.498515592689237    0.719765862389885  0.0000
  O2     O2        0.788853473184350    0.997992384500213    0.277331408946072  0.0000
  O2     O2        0.243523108962296    0.992674293868267    0.716333160498101  0.0000
  O2     O2        0.397356526311750    0.500167358713966    0.723574103449076  0.0000
  O3     O3        0.636479066046823    0.501525113796617    0.254695298849861  0.0000
  O3     O3        0.912173075908550    0.003035462655115    0.744339389818812  0.0000
  O3     O3        0.129761990355111    0.989205662414436    0.248378793156720  0.0000
