data_c01123.vasp
_audit_creation_method             Generated by GULP
_audit_author_name                 Salvador R. G. Balestra
_symmetry_space_group_name_H-M     'P 1             '
_symmetry_Int_Tables_number        1

loop_
_symmetry_equiv_pos_site_id
_symmetry_equiv_pos_as_xyz
_cell_length_a                       10.1979
_cell_length_b                       15.2570
_cell_length_c                        8.9754
_cell_angle_alpha                   89.8168
_cell_angle_beta                   105.3748
_cell_angle_gamma                   89.8299

loop_
_atom_site_label
_atom_site_type_symbol
_atom_site_fract_x
_atom_site_fract_y
_atom_site_fract_z
_atom_site_charge
  Ge     Ge        0.351599999999962    0.244500000000016    0.893900000000031  0.0000
  Ge     Ge        0.594169844360081    0.605644758693157    0.314728468689795  0.0000
  Ge     Ge        0.088367479075203    0.900735921919043    0.306036402894967  0.0000
  Ge     Ge        0.884068626920154    0.102695579474257    0.692731614677139  0.0000
  Si     Si        0.653770672751299    0.249337988228144    0.108696271240224  0.0000
  Si     Si        0.621140621120519    0.762237925172228    0.102500592016092  0.0000
  Si     Si        0.323590018646422    0.753544685989341    0.892896198154609  0.0000
  Si     Si        0.822220712366470    0.747461787861520    0.894739631473259  0.0000
  Si     Si        0.121474593622388    0.744088089473910    0.099844571784845  0.0000
  Si     Si        0.146524879558667    0.259002333490433    0.107783473402284  0.0000
  Si     Si        0.851912663951610    0.260393315637067    0.900768723584872  0.0000
  Si     Si        0.286356913554746    0.404171615262534    0.326289856129997  0.0000
  Si     Si        0.679496956215809    0.398633820617694    0.674571538353476  0.0000
  Si     Si        0.686323919907580    0.600611328887016    0.674750860003388  0.0000
  Si     Si        0.284071500953426    0.606514070483575    0.327373077195647  0.0000
  Si     Si        0.781262645354002    0.901005292597252    0.324916229854709  0.0000
  Si     Si        0.183387730302008    0.898028046037791    0.666682633561966  0.0000
  Si     Si        0.188707943891099    0.100965257928457    0.670349298941999  0.0000
  Si     Si        0.782922600678051    0.102258851860807    0.333092586910813  0.0000
  Si     Si        0.376391773150475    0.402177576718088    0.683827610612888  0.0000
  Si     Si        0.589368206763799    0.399962760760785    0.315933186672897  0.0000
  Si     Si        0.380149684057664    0.604115873788703    0.680430572398270  0.0000
  Si     Si        0.881125122240815    0.896987380232142    0.680564562982654  0.0000
  Si     Si        0.086451026451492    0.104953472523737    0.315522874974883  0.0000
  O3     O3        0.523963389665489    0.234895476058642    0.969253509072852  0.0000
  O2     O2        0.460639671247698    0.770563001336148    0.024964691074625  0.0000
  O2     O2        0.961098209337233    0.734110836098240    0.025751826899212  0.0000
  O2     O2        0.013111063044302    0.276001170276226    0.968050485065618  0.0000
  O3     O3        0.310638130781431    0.157371423024058    0.769361614628504  0.0000
  O2     O2        0.673953259696653    0.164893038185091    0.220717013983278  0.0000
  O2     O2        0.660640729397489    0.841447051278778    0.224458188700334  0.0000
  O2     O2        0.295960756304901    0.836917955969716    0.778874066068151  0.0000
  O2     O2        0.795031779233044    0.659466396970251    0.793653948189895  0.0000
  O2     O2        0.164440740359525    0.666433751680435    0.225218174622365  0.0000
  O2     O2        0.171307590035504    0.343074595542567    0.220591801361447  0.0000
  O2     O2        0.795896829018266    0.336130178065316    0.774499836661359  0.0000
  O3     O3        0.314322482079203    0.342222755630876    0.791724898941196  0.0000
  O2     O2        0.643748458295827    0.335357234678826    0.206962482427447  0.0000
  O3     O3        0.654825291295266    0.670878251768845    0.192641845963619  0.0000
  O2     O2        0.332442462485752    0.665201652809450    0.799669814733588  0.0000
  O2     O2        0.826677972971250    0.830624022807337    0.787448136161069  0.0000
  O3     O3        0.151059950532717    0.836899763838654    0.183811023549278  0.0000
  O2     O2        0.131606961977026    0.172808951987493    0.203934621139267  0.0000
  O3     O3        0.825267011979526    0.167029859908840    0.817757578289820  0.0000
  O3     O3        0.273452032866976    0.242434785568962    0.040011133139478  0.0000
  O2     O2        0.783492071035122    0.263413694498393    0.041595508744885  0.0000
  O2     O2        0.700894803167070    0.767555404695906    0.971764572101427  0.0000
  O2     O2        0.200261254416878    0.738093759426219    0.968444027039761  0.0000
  O2     O2        0.430272275778064    0.380824624674777    0.294540233967094  0.0000
  O2     O2        0.534880120024777    0.375964184735377    0.706492891142434  0.0000
  O2     O2        0.535272402677853    0.624698268266479    0.685760435956774  0.0000
  O3     O3        0.426599494924720    0.632692468423474    0.298214524868597  0.0000
  O3     O3        0.922536207221380    0.871945485650266    0.294674122319202  0.0000
  O2     O2        0.034188684563733    0.871149054331676    0.679979900707040  0.0000
  O3     O3        0.048686383270435    0.133618425651389    0.702175810672640  0.0000
  O2     O2        0.934182569079374    0.125675578679215    0.323676776605482  0.0000
  O2     O2        0.294065662959030    0.387652547277099    0.505502958152216  0.0000
  O2     O2        0.671437630978708    0.384978531389347    0.494438863149507  0.0000
  O3     O3        0.692475959577381    0.618925913693122    0.501990693840033  0.0000
  O2     O2        0.288025802409463    0.621250936251500    0.506938379005125  0.0000
  O2     O2        0.786565361929588    0.890348691864193    0.505601694536842  0.0000
  O3     O3        0.188965763097246    0.886359750910618    0.492256681763203  0.0000
  O2     O2        0.183485825309125    0.110883150418967    0.489286849176296  0.0000
  O3     O3        0.778749530511503    0.114540686493845    0.507963246168345  0.0000
  O2     O2        0.250414630069947    0.505252442496289    0.282251446259202  0.0000
  O2     O2        0.719066163378666    0.498958216696456    0.719748060304074  0.0000
  O2     O2        0.749234065146452    0.002379566719781    0.277480321048271  0.0000
  O2     O2        0.211174165155976    0.998789145331229    0.718222072053717  0.0000
  O2     O2        0.365609652877176    0.503644660921585    0.729217835793980  0.0000
  O3     O3        0.607752972680998    0.497934197869273    0.263811741208214  0.0000
  O3     O3        0.878053009037100    0.994045504118907    0.745280930165316  0.0000
  O3     O3        0.095211770019247    0.008512016273095    0.250237469687050  0.0000
