data_c01141.vasp
_audit_creation_method             Generated by GULP
_audit_author_name                 Salvador R. G. Balestra
_symmetry_space_group_name_H-M     'P 1             '
_symmetry_Int_Tables_number        1

loop_
_symmetry_equiv_pos_site_id
_symmetry_equiv_pos_as_xyz
_cell_length_a                       10.2061
_cell_length_b                       15.2403
_cell_length_c                        8.9341
_cell_angle_alpha                   89.4557
_cell_angle_beta                   105.1117
_cell_angle_gamma                   90.3847

loop_
_atom_site_label
_atom_site_type_symbol
_atom_site_fract_x
_atom_site_fract_y
_atom_site_fract_z
_atom_site_charge
  Ge     Ge        0.306699999999978    0.397900000000050    0.331699999999955  0.0000
  Ge     Ge        0.714900257326646    0.386471406342349    0.677795677056281  0.0000
  Ge     Ge        0.727378264849314    0.597128239642421    0.678186689123434  0.0000
  Ge     Ge        0.612686971322913    0.391298353253670    0.303892607231826  0.0000
  Si     Si        0.350317967901321    0.243124594491319    0.909427457092103  0.0000
  Si     Si        0.651197528837571    0.233038091270354    0.104760916401474  0.0000
  Si     Si        0.678880807602639    0.749258181484803    0.106675926974283  0.0000
  Si     Si        0.386798436200867    0.755379570367029    0.901850751481554  0.0000
  Si     Si        0.892974928016060    0.736227074365007    0.909466479827442  0.0000
  Si     Si        0.190814185309444    0.748319542761613    0.121267571551958  0.0000
  Si     Si        0.144957908864193    0.251826472528034    0.118381227816135  0.0000
  Si     Si        0.852809234341615    0.237079788549279    0.898161702214625  0.0000
  Si     Si        0.320764986767882    0.598333885703359    0.348313616871358  0.0000
  Si     Si        0.825502506987832    0.890581060144959    0.335223233342743  0.0000
  Si     Si        0.220425415280464    0.895486039891131    0.679879167545392  0.0000
  Si     Si        0.213191498931204    0.096702485205890    0.684462947653650  0.0000
  Si     Si        0.817152756625262    0.093394133900233    0.333923423423430  0.0000
  Si     Si        0.415497359388040    0.395516000434533    0.704659383750159  0.0000
  Si     Si        0.623702462851664    0.595470940443841    0.318941150584800  0.0000
  Si     Si        0.421245875089984    0.597529224332177    0.705336739949316  0.0000
  Si     Si        0.917835230102093    0.888376850852756    0.692004650464790  0.0000
  Si     Si        0.127508909674406    0.897611319155354    0.322156003076073  0.0000
  Si     Si        0.122146599264365    0.098341152391377    0.327398299607328  0.0000
  Si     Si        0.908759311844623    0.089881125561281    0.689955533129194  0.0000
  O2     O2        0.489498085932220    0.222432967570214    0.036608618444764  0.0000
  O2     O2        0.544657710746006    0.775700191342355    0.976232031696306  0.0000
  O2     O2        0.049174371570989    0.727108838696314    0.001185876197531  0.0000
  O2     O2        0.986317837486077    0.251070403632506    0.035615910399884  0.0000
  O2     O2        0.320773486913512    0.162155713056182    0.790019862130648  0.0000
  O2     O2        0.701563441182879    0.153610231882736    0.227232121451070  0.0000
  O2     O2        0.713409001716364    0.827175916234778    0.231265825700829  0.0000
  O2     O2        0.336000930186715    0.832932049297410    0.778469666394550  0.0000
  O3     O3        0.858019472044834    0.656778741794941    0.792328382553201  0.0000
  O2     O2        0.224106023437284    0.671545567628155    0.248805763680387  0.0000
  O3     O3        0.174028756924639    0.333249209278099    0.232704009276103  0.0000
  O3     O3        0.839301539651940    0.317512888794616    0.781225820562098  0.0000
  O2     O2        0.353601184078856    0.333420878436813    0.815893057293857  0.0000
  O3     O3        0.682147467987505    0.325561328562653    0.188771275042831  0.0000
  O2     O2        0.652871825132767    0.658794108199974    0.187429802193154  0.0000
  O2     O2        0.365255876502297    0.661233225980260    0.817382483765464  0.0000
  O2     O2        0.864411062404446    0.826495796908976    0.809254654407386  0.0000
  O2     O2        0.186951035562847    0.840248946044691    0.206709058320186  0.0000
  O2     O2        0.182991175658869    0.162611250537755    0.219885668653299  0.0000
  O2     O2        0.852657625045987    0.146188106710043    0.808311512462929  0.0000
  O2     O2        0.231009766498433    0.254859492387659    0.992664987087142  0.0000
  O2     O2        0.721989122249296    0.229962688528832    0.965214901698766  0.0000
  O2     O2        0.801503595646220    0.734335703641267    0.029853178777977  0.0000
  O2     O2        0.309014441216885    0.755045151078530    0.035182525704565  0.0000
  O1     O1        0.438843938310115    0.385041911381955    0.249937849313327  0.0000
  O3     O3        0.576600727829298    0.386403668063705    0.755873557270440  0.0000
  O3     O3        0.582622464281313    0.607219384737767    0.742451545083803  0.0000
  O2     O2        0.462459067252380    0.586434603772660    0.302726157765953  0.0000
  O2     O2        0.970057119771160    0.873188142268376    0.300189441273189  0.0000
  O2     O2        0.077392332050741    0.871152233872830    0.714486179761898  0.0000
  O2     O2        0.066263043291387    0.113266703294589    0.712482893401255  0.0000
  O2     O2        0.962629445528889    0.116949101146917    0.304665503532198  0.0000
  O3     O3        0.358036805930988    0.370071178147776    0.526526019472406  0.0000
  O1     O1        0.666482412085950    0.353388295649875    0.490287816699004  0.0000
  O3     O3        0.697072509110421    0.631705363854003    0.486987590017513  0.0000
  O2     O2        0.353003861786895    0.625854200126766    0.527977837797696  0.0000
  O2     O2        0.836399238434128    0.868667970181936    0.515033226419985  0.0000
  O2     O2        0.210784779154942    0.880764527446454    0.499252442070341  0.0000
  O2     O2        0.205037800473089    0.115145750897801    0.504543405379067  0.0000
  O2     O2        0.824219858109857    0.110697521824087    0.513928050780292  0.0000
  O3     O3        0.248132282726283    0.504876347791434    0.320600906569221  0.0000
  O1     O1        0.778529191150259    0.490783340248169    0.687531556043797  0.0000
  O2     O2        0.781530945533143    0.991307817586201    0.296126526997482  0.0000
  O2     O2        0.258869294095298    0.996316159098644    0.726060938254579  0.0000
  O2     O2        0.379228718184260    0.497136888133591    0.731356675792281  0.0000
  O3     O3        0.671538347338594    0.497849376431566    0.295387039055925  0.0000
  O2     O2        0.892254615078826    0.988287563174292    0.731489165288028  0.0000
  O2     O2        0.142428249959252    0.999118926439362    0.278352478368594  0.0000
