data_c01154.vasp
_audit_creation_method             Generated by GULP
_audit_author_name                 Salvador R. G. Balestra
_symmetry_space_group_name_H-M     'P 1             '
_symmetry_Int_Tables_number        1

loop_
_symmetry_equiv_pos_site_id
_symmetry_equiv_pos_as_xyz
_cell_length_a                       10.2731
_cell_length_b                       15.2631
_cell_length_c                        8.9307
_cell_angle_alpha                   89.8622
_cell_angle_beta                   105.2703
_cell_angle_gamma                   90.3992

loop_
_atom_site_label
_atom_site_type_symbol
_atom_site_fract_x
_atom_site_fract_y
_atom_site_fract_z
_atom_site_charge
  Ge     Ge        0.306699999999978    0.397900000000050    0.331699999999955  0.0000
  Ge     Ge        0.709495954117005    0.404114575396911    0.676191597671457  0.0000
  Ge     Ge        0.798549781410276    0.900361660362565    0.330944978626233  0.0000
  Ge     Ge        0.399571074015644    0.603566990723541    0.693353286605607  0.0000
  Si     Si        0.353497704235297    0.244506298688221    0.903861021329396  0.0000
  Si     Si        0.650833580853392    0.249096938135932    0.104065284929902  0.0000
  Si     Si        0.654957628490618    0.754169167669145    0.103145921020201  0.0000
  Si     Si        0.358531499462913    0.759500002808829    0.897565263110306  0.0000
  Si     Si        0.865019008177571    0.749198043919307    0.901717267672544  0.0000
  Si     Si        0.161106495993369    0.748654877119224    0.110449876301592  0.0000
  Si     Si        0.147518269034437    0.251917821111844    0.112629349130358  0.0000
  Si     Si        0.852891616630443    0.255137280736058    0.893016947011698  0.0000
  Si     Si        0.705453598608960    0.607934394801768    0.674216860692760  0.0000
  Si     Si        0.302286299105036    0.602870071625610    0.330967090167256  0.0000
  Si     Si        0.199159363405417    0.901322369517248    0.676471279099223  0.0000
  Si     Si        0.202032957595661    0.102961479615639    0.677354524806498  0.0000
  Si     Si        0.808489920726410    0.105151754316111    0.327495827344835  0.0000
  Si     Si        0.407426290938989    0.398654579852370    0.698697021710363  0.0000
  Si     Si        0.606326675641511    0.401038743693382    0.308239608710341  0.0000
  Si     Si        0.602835076994076    0.602269093678629    0.314551159730010  0.0000
  Si     Si        0.899033581822481    0.902597496167047    0.694943927355192  0.0000
  Si     Si        0.105699338519887    0.898064644515906    0.320062691270603  0.0000
  Si     Si        0.110486085413030    0.099907582726755    0.319625158208917  0.0000
  Si     Si        0.901906580626507    0.103689034861472    0.687236154848977  0.0000
  O2     O2        0.497018162304344    0.224284823186603    0.020893897414495  0.0000
  O2     O2        0.518660592513639    0.768877495442072    0.969521440867094  0.0000
  O2     O2        0.020113312943073    0.730062761038544    0.986256808434887  0.0000
  O2     O2        0.993741498808051    0.262566417051893    0.018977077493360  0.0000
  O2     O2        0.317030269937095    0.164616535331720    0.781597013005393  0.0000
  O2     O2        0.703237334487708    0.174052385644830    0.231013882546956  0.0000
  O3     O3        0.674618292506292    0.833550856075452    0.222798743716412  0.0000
  O2     O2        0.313843287997081    0.839898113791006    0.778733143270895  0.0000
  O2     O2        0.816250323741463    0.675980388015470    0.769764685868399  0.0000
  O2     O2        0.190976834170535    0.664778558083021    0.222249519607977  0.0000
  O3     O3        0.178931039167778    0.331374157091473    0.231727237743718  0.0000
  O3     O3        0.835263406676181    0.336907079945048    0.778075768508378  0.0000
  O2     O2        0.353665273928247    0.335075908679528    0.813046164946299  0.0000
  O2     O2        0.665307473526957    0.342520664836449    0.191395290126373  0.0000
  O2     O2        0.652597804885541    0.663234442569276    0.194628461635459  0.0000
  O3     O3        0.330602720766397    0.667835361630060    0.809170503503580  0.0000
  O2     O2        0.850732621153800    0.844435918180171    0.820502378752152  0.0000
  O2     O2        0.162592299641895    0.837132864577953    0.207199836885146  0.0000
  O2     O2        0.170707117055407    0.160105725504520    0.206545999929075  0.0000
  O2     O2        0.841251756866207    0.165496293360598    0.795451518531196  0.0000
  O2     O2        0.242967031778074    0.253570351343756    0.998519940252953  0.0000
  O2     O2        0.732218558292068    0.253896724161888    0.975186256312956  0.0000
  O2     O2        0.779864567482234    0.749316711329950    0.027556773686637  0.0000
  O2     O2        0.280712159103772    0.762711867357496    0.029515135312500  0.0000
  O3     O3        0.445522385608478    0.389593706994735    0.258934977024255  0.0000
  O3     O3        0.569166813307037    0.398491802143719    0.746554752725690  0.0000
  O3     O3        0.573032406791957    0.612454716514950    0.736438522580693  0.0000
  O2     O2        0.441220362885175    0.605229281971221    0.277408116105144  0.0000
  O3     O3        0.952141660123803    0.872232004786809    0.302608036295699  0.0000
  O2     O2        0.053114792612200    0.877794006994054    0.700939080508135  0.0000
  O2     O2        0.058149892114931    0.128446108296089    0.705299279671063  0.0000
  O2     O2        0.955145108133076    0.124627531159681    0.300949591608545  0.0000
  O3     O3        0.352429649635832    0.366266046100237    0.523156097846307  0.0000
  O3     O3        0.667432478532690    0.371943624339305    0.484350431841329  0.0000
  O2     O2        0.668268357794665    0.633218182801218    0.491083617498118  0.0000
  O3     O3        0.331085001240585    0.636761754628476    0.505063982541210  0.0000
  O3     O3        0.804753136882965    0.886884056141124    0.524556343537131  0.0000
  O2     O2        0.193932233687305    0.885555151005241    0.496955292118735  0.0000
  O2     O2        0.196427108049392    0.116305257714635    0.496567521390437  0.0000
  O2     O2        0.816498606745517    0.115213760559553    0.509666135933788  0.0000
  O3     O3        0.248455964087023    0.504065140258544    0.318504739767627  0.0000
  O3     O3        0.766272009915410    0.511260594528633    0.693568551615473  0.0000
  O3     O3        0.761693785486084    0.007612043593104    0.275736715424599  0.0000
  O2     O2        0.236690578532091    0.002053959391647    0.723720284711535  0.0000
  O3     O3        0.355600021818727    0.496144548573799    0.715030363392946  0.0000
  O2     O2        0.646726669080767    0.502912071350642    0.291628478204366  0.0000
  O2     O2        0.890463137783583    0.004041048903507    0.741472217830341  0.0000
  O2     O2        0.118784832616402    0.999086747920887    0.271318103449851  0.0000
