data_c01160.vasp
_audit_creation_method             Generated by GULP
_audit_author_name                 Salvador R. G. Balestra
_symmetry_space_group_name_H-M     'P 1             '
_symmetry_Int_Tables_number        1

loop_
_symmetry_equiv_pos_site_id
_symmetry_equiv_pos_as_xyz
_cell_length_a                       10.2210
_cell_length_b                       15.3005
_cell_length_c                        8.8977
_cell_angle_alpha                   90.2553
_cell_angle_beta                   105.0879
_cell_angle_gamma                   89.7084

loop_
_atom_site_label
_atom_site_type_symbol
_atom_site_fract_x
_atom_site_fract_y
_atom_site_fract_z
_atom_site_charge
  Ge     Ge        0.306699999999978    0.397900000000050    0.331699999999955  0.0000
  Ge     Ge        0.709954294185884    0.406534766246823    0.687095718000498  0.0000
  Ge     Ge        0.208155240526724    0.102912168793751    0.681660530462432  0.0000
  Ge     Ge        0.404607809848383    0.400576559415413    0.710332984286709  0.0000
  Si     Si        0.373427697145134    0.244058499269145    0.915179422751786  0.0000
  Si     Si        0.675280738417201    0.252885798230984    0.114273787190998  0.0000
  Si     Si        0.636279852585910    0.763452338315974    0.115256929390842  0.0000
  Si     Si        0.344739089050287    0.756753456782567    0.903084349987606  0.0000
  Si     Si        0.839370609412710    0.753118808930722    0.901666595975089  0.0000
  Si     Si        0.136606558250306    0.743240908653291    0.109009453910861  0.0000
  Si     Si        0.163885047755219    0.248741274518765    0.113274544590227  0.0000
  Si     Si        0.873855055062118    0.259109599288523    0.896744356725000  0.0000
  Si     Si        0.702615881791562    0.606104978371423    0.671461190499876  0.0000
  Si     Si        0.298162315245679    0.603534243172005    0.337210928246312  0.0000
  Si     Si        0.799195559467046    0.902887497408956    0.338730059935581  0.0000
  Si     Si        0.198169050607188    0.897882800443853    0.677028223625203  0.0000
  Si     Si        0.805629416660667    0.103114377129490    0.337705255988241  0.0000
  Si     Si        0.604333672677615    0.404843337907697    0.310601652048651  0.0000
  Si     Si        0.600494662016612    0.605108853872556    0.314477816296297  0.0000
  Si     Si        0.397405454636357    0.602492533617190    0.693231520931306  0.0000
  Si     Si        0.898867182047240    0.903499380628475    0.697232721913396  0.0000
  Si     Si        0.099245134293859    0.897836484348691    0.317426824189325  0.0000
  Si     Si        0.108998591554458    0.097735248219975    0.319458288014651  0.0000
  Si     Si        0.898741978145922    0.104950011904819    0.693514928181447  0.0000
  O2     O2        0.534133032739572    0.237342513372751    0.989281739471763  0.0000
  O2     O2        0.481288198357402    0.783946871513008    0.028862826465171  0.0000
  O2     O2        0.981161120691873    0.726511901614972    0.018885342275562  0.0000
  O2     O2        0.033266221864830    0.266956534156535    0.973222446847720  0.0000
  O3     O3        0.334914203866147    0.165634325979656    0.792162755755255  0.0000
  O2     O2        0.701836780178770    0.169996506329828    0.230011703204706  0.0000
  O2     O2        0.683033270234235    0.840192955215213    0.241170702277151  0.0000
  O2     O2        0.309769215319723    0.831354017110886    0.772898089206226  0.0000
  O2     O2        0.799101656496070    0.678681825770652    0.771155708124403  0.0000
  O2     O2        0.184186420986400    0.665292499488014    0.231242531512265  0.0000
  O3     O3        0.181675638447719    0.328316657892908    0.232422065228395  0.0000
  O3     O3        0.839069625223924    0.337297069943485    0.775462672332569  0.0000
  O3     O3        0.336122957091360    0.335251261842065    0.826855795144066  0.0000
  O2     O2        0.677327185843846    0.341983310605291    0.211800130834750  0.0000
  O2     O2        0.649674219615539    0.669357350214076    0.198694140909076  0.0000
  O2     O2        0.364109258924524    0.666323145969450    0.820376809607955  0.0000
  O2     O2        0.845509828626875    0.845397285295143    0.817758678551894  0.0000
  O2     O2        0.152616844325888    0.834728504840449    0.202217200510499  0.0000
  O2     O2        0.150567746871267    0.156471895431373    0.192489716594177  0.0000
  O2     O2        0.838280968457007    0.166750143212248    0.805889188298873  0.0000
  O2     O2        0.295645009965280    0.237301547090971    0.049027677463235  0.0000
  O2     O2        0.793303671389741    0.263707058484151    0.028424840540657  0.0000
  O2     O2        0.724705843230840    0.761963885428707    0.992207636188741  0.0000
  O2     O2        0.224736872831870    0.745763443041277    0.985537829088372  0.0000
  O3     O3        0.443878721935557    0.391772997392309    0.252119189366937  0.0000
  O1     O1        0.577907374465974    0.393246413963835    0.768603547699256  0.0000
  O2     O2        0.558690304348870    0.597140467872140    0.713137580186970  0.0000
  O2     O2        0.438657864302872    0.612352689222217    0.287208392672035  0.0000
  O2     O2        0.941711238234652    0.877855880622837    0.303541045854524  0.0000
  O2     O2        0.053163819651993    0.877172371315570    0.708819881259683  0.0000
  O3     O3        0.052612809145588    0.131894941194657    0.707846151909656  0.0000
  O2     O2        0.955972343266427    0.120517529462882    0.322447410064584  0.0000
  O1     O1        0.348354319416309    0.366356343375966    0.521123126866112  0.0000
  O3     O3        0.651276760870817    0.382746851683592    0.491384317673530  0.0000
  O2     O2        0.676878527934374    0.631716201892092    0.490430622820946  0.0000
  O2     O2        0.322066887692327    0.632449475452221    0.517746627262359  0.0000
  O2     O2        0.808717424937476    0.889595906092219    0.520938162655564  0.0000
  O2     O2        0.187060871062823    0.884637434965139    0.494130125482130  0.0000
  O3     O3        0.206221672293700    0.115455701207820    0.487968137359017  0.0000
  O2     O2        0.806831930340986    0.118355115113216    0.517442945571425  0.0000
  O3     O3        0.248240889681974    0.504746783847002    0.317235753360094  0.0000
  O3     O3        0.772143314136976    0.512244883469436    0.704103660286817  0.0000
  O2     O2        0.761073726756255    0.003388423100514    0.290162745467822  0.0000
  O3     O3        0.242535663592341    0.994808657641989    0.730143850438948  0.0000
  O3     O3        0.349498095218504    0.506795878187978    0.723249715900268  0.0000
  O2     O2        0.640079788509025    0.505865689690523    0.281369116726266  0.0000
  O2     O2        0.891177795422671    0.004641058727394    0.745365572623567  0.0000
  O2     O2        0.117574673281263    0.997010573862647    0.267716124645913  0.0000
