data_c01180.vasp
_audit_creation_method             Generated by GULP
_audit_author_name                 Salvador R. G. Balestra
_symmetry_space_group_name_H-M     'P 1             '
_symmetry_Int_Tables_number        1

loop_
_symmetry_equiv_pos_site_id
_symmetry_equiv_pos_as_xyz
_cell_length_a                       10.2410
_cell_length_b                       15.1884
_cell_length_c                        8.9878
_cell_angle_alpha                   89.8099
_cell_angle_beta                   105.2771
_cell_angle_gamma                   90.0443

loop_
_atom_site_label
_atom_site_type_symbol
_atom_site_fract_x
_atom_site_fract_y
_atom_site_fract_z
_atom_site_charge
  Ge     Ge        0.306699999999978    0.397900000000050    0.331699999999955  0.0000
  Ge     Ge        0.713497504388967    0.396345957223743    0.670459837483492  0.0000
  Ge     Ge        0.902488830799710    0.893624110499671    0.684753387222865  0.0000
  Ge     Ge        0.117240802088935    0.896737775959590    0.313565746179568  0.0000
  Si     Si        0.353495576093889    0.241104100111350    0.899762267263656  0.0000
  Si     Si        0.649791144295075    0.241585445495611    0.103278077877698  0.0000
  Si     Si        0.648698959281181    0.752486238652569    0.107863197881884  0.0000
  Si     Si        0.352975941751247    0.748785158136254    0.896657448331977  0.0000
  Si     Si        0.852541186236706    0.741328462221513    0.900806659269792  0.0000
  Si     Si        0.150030358565030    0.740404261894340    0.104057496224610  0.0000
  Si     Si        0.149655067080755    0.253410330338810    0.109587969918621  0.0000
  Si     Si        0.852823149237127    0.249232046632241    0.894244176403419  0.0000
  Si     Si        0.710735854289117    0.600578947777743    0.672972615323622  0.0000
  Si     Si        0.311786110544404    0.603473977335549    0.335259739872571  0.0000
  Si     Si        0.808387719658515    0.895728179183581    0.327626871753300  0.0000
  Si     Si        0.211231317696503    0.893993445415072    0.671849075881546  0.0000
  Si     Si        0.204694406363237    0.097536538245998    0.677551700021762  0.0000
  Si     Si        0.816408233965127    0.100461826307174    0.327786169160873  0.0000
  Si     Si        0.405902710893957    0.393703150011433    0.689929286031317  0.0000
  Si     Si        0.613300661681561    0.395996768387668    0.311028083551174  0.0000
  Si     Si        0.610548960231300    0.599110027987461    0.316887738197679  0.0000
  Si     Si        0.411329332013009    0.597478466300461    0.690450897521615  0.0000
  Si     Si        0.118078090579969    0.101869000285627    0.320079819951999  0.0000
  Si     Si        0.903155649548081    0.100041448892279    0.684216598930321  0.0000
  O2     O2        0.494836733213185    0.219458407802944    0.020650228273562  0.0000
  O2     O2        0.492567791500098    0.767066550710315    0.022055490017737  0.0000
  O2     O2        0.994263206416393    0.718874153246436    0.021714641009051  0.0000
  O2     O2        0.992858521741875    0.252146243154392    0.022493967413592  0.0000
  O2     O2        0.319329688661833    0.160951152298289    0.778447035820812  0.0000
  O2     O2        0.702430467800623    0.163078762557064    0.224449983285744  0.0000
  O2     O2        0.694286761109306    0.838124467819021    0.212443654657800  0.0000
  O2     O2        0.323755800791365    0.832619592823973    0.783017328698597  0.0000
  O2     O2        0.822061678670709    0.669720891083579    0.763365005361120  0.0000
  O2     O2        0.199519074859744    0.671379589281472    0.243736173130672  0.0000
  O3     O3        0.178827930408715    0.339555477052691    0.212383713017235  0.0000
  O3     O3        0.838869386502202    0.332665585040443    0.783477132499772  0.0000
  O2     O2        0.358437011729722    0.333446727740564    0.813163985374471  0.0000
  O2     O2        0.663302157989077    0.335356119793561    0.190024775993945  0.0000
  O2     O2        0.670279842627717    0.663880140146106    0.210632070433453  0.0000
  O2     O2        0.356456813389799    0.659073460515678    0.803869294650225  0.0000
  O3     O3        0.854768347470623    0.836099853459119    0.825389877708799  0.0000
  O3     O3        0.167166800460547    0.836639401037010    0.177470260196058  0.0000
  O2     O2        0.184422706009283    0.168905053364857    0.222846699964438  0.0000
  O2     O2        0.839719278109337    0.162285307600248    0.789827344901444  0.0000
  O2     O2        0.239002670197985    0.250563823056092    0.988961003411294  0.0000
  O2     O2        0.730687045693356    0.248411475951947    0.974503899974643  0.0000
  O2     O2        0.734112489088433    0.739491233171438    0.985317801564196  0.0000
  O2     O2        0.234193744546383    0.734013362446503    0.978610889414135  0.0000
  O3     O3        0.462833697734301    0.367215000666267    0.311646463863527  0.0000
  O3     O3        0.555604282645707    0.366405979499284    0.685758590737292  0.0000
  O2     O2        0.564748637566162    0.624266685169988    0.698650543999295  0.0000
  O2     O2        0.457486748464385    0.627770295862913    0.308483994392472  0.0000
  O3     O3        0.955103939657121    0.867007767271744    0.313987459261234  0.0000
  O3     O3        0.063765622401215    0.864329646642730    0.681934663776886  0.0000
  O2     O2        0.060045649098751    0.125023669090218    0.702063646423017  0.0000
  O2     O2        0.961398317373931    0.127034038880795    0.303382258483431  0.0000
  O3     O3        0.305214615989783    0.382953759000274    0.521761180121240  0.0000
  O3     O3        0.713589901296829    0.385624202308599    0.479306906739733  0.0000
  O2     O2        0.703122662102842    0.606628759729868    0.491475891000061  0.0000
  O2     O2        0.318685922302440    0.610193448717287    0.516556631504684  0.0000
  O3     O3        0.798542804513354    0.880737579323665    0.500770187690778  0.0000
  O3     O3        0.220991690817759    0.884135089609806    0.498002626895699  0.0000
  O2     O2        0.202503244377119    0.108259344682385    0.498746786040200  0.0000
  O2     O2        0.818191113313701    0.112401245606640    0.506347188670446  0.0000
  O3     O3        0.272206700022740    0.506053329390020    0.277942745657145  0.0000
  O3     O3        0.751800869439321    0.503120019950986    0.731018375328785  0.0000
  O2     O2        0.784863401647555    0.998817025907323    0.281110855345967  0.0000
  O2     O2        0.236232402578170    0.995868113638121    0.726318505999477  0.0000
  O2     O2        0.405704978399912    0.496049763141274    0.741816072160339  0.0000
  O2     O2        0.612437713911476    0.498723989853426    0.258944204805615  0.0000
  O3     O3        0.894138865007404    0.001534177863511    0.738989346546703  0.0000
  O3     O3        0.125623590453389    0.004789000634124    0.257968911631613  0.0000
