data_c01157.vasp
_audit_creation_method             Generated by GULP
_audit_author_name                 Salvador R. G. Balestra
_symmetry_space_group_name_H-M     'P 1             '
_symmetry_Int_Tables_number        1

loop_
_symmetry_equiv_pos_site_id
_symmetry_equiv_pos_as_xyz
_cell_length_a                       10.3046
_cell_length_b                       15.2501
_cell_length_c                        8.9171
_cell_angle_alpha                   90.4168
_cell_angle_beta                   105.2248
_cell_angle_gamma                   89.9410

loop_
_atom_site_label
_atom_site_type_symbol
_atom_site_fract_x
_atom_site_fract_y
_atom_site_fract_z
_atom_site_charge
  Ge     Ge        0.306699999999978    0.397900000000050    0.331699999999955  0.0000
  Ge     Ge        0.709602386578199    0.409299821902456    0.682040080158291  0.0000
  Ge     Ge        0.798197518753867    0.899873465338629    0.336635469316872  0.0000
  Ge     Ge        0.108343433337265    0.101048430588381    0.314439691891613  0.0000
  Si     Si        0.349313489006557    0.252081079449228    0.903321267142898  0.0000
  Si     Si        0.646933355288253    0.249047945424145    0.104962297398033  0.0000
  Si     Si        0.643677786052894    0.758779187706151    0.106247934461408  0.0000
  Si     Si        0.350489339958036    0.759446133529058    0.891445795628480  0.0000
  Si     Si        0.854164076891173    0.754394590494976    0.903251360012410  0.0000
  Si     Si        0.150280856510851    0.744782816138683    0.106516238665440  0.0000
  Si     Si        0.146043140234276    0.254596459639919    0.111128047766483  0.0000
  Si     Si        0.850744438022780    0.259154397457637    0.896522793124986  0.0000
  Si     Si        0.697847439859474    0.613496802487136    0.668247353695001  0.0000
  Si     Si        0.298825493897728    0.601530793612977    0.327988532639646  0.0000
  Si     Si        0.195865324140129    0.904711996783160    0.675007561500687  0.0000
  Si     Si        0.202612922965039    0.105831344932490    0.677616568415638  0.0000
  Si     Si        0.805854191719417    0.106779222485705    0.325001828681095  0.0000
  Si     Si        0.409941993032599    0.403848607380584    0.701694077704732  0.0000
  Si     Si        0.606930344096756    0.401924864782515    0.311338017845613  0.0000
  Si     Si        0.599383650210009    0.604026024312729    0.310332235594116  0.0000
  Si     Si        0.397053277176207    0.605050252865844    0.686016849435875  0.0000
  Si     Si        0.898345775111620    0.907408915897836    0.699308616247100  0.0000
  Si     Si        0.098417895683368    0.895286656840053    0.316951463880371  0.0000
  Si     Si        0.900177888305584    0.107514869899056    0.684089036922570  0.0000
  O2     O2        0.491725899476434    0.231073963941166    0.020692463759507  0.0000
  O2     O2        0.503009044770400    0.777578887923324    0.984096706779718  0.0000
  O2     O2        0.003328963575246    0.726170978721521    0.995491714322389  0.0000
  O2     O2        0.990104900909051    0.264474778992937    0.025419489839666  0.0000
  O2     O2        0.311636781244603    0.169102349705625    0.787358637026579  0.0000
  O2     O2        0.690928843575572    0.170020466989792    0.225951455146109  0.0000
  O3     O3        0.669107708266128    0.834756844152905    0.234191926826555  0.0000
  O2     O2        0.307215649615222    0.840136222064577    0.774495489207302  0.0000
  O2     O2        0.800512919114756    0.684384653433953    0.765962549365741  0.0000
  O2     O2        0.187100176745098    0.664341005872936    0.224656197104230  0.0000
  O3     O3        0.179557607896068    0.328059929485197    0.244173549100028  0.0000
  O3     O3        0.835103213424981    0.343606830016883    0.788511559699443  0.0000
  O2     O2        0.349985124188823    0.341955766315276    0.811405227419965  0.0000
  O2     O2        0.668932944019868    0.341274364012448    0.198663863268320  0.0000
  O2     O2        0.645498259403917    0.664433329406457    0.187796551718179  0.0000
  O2     O2        0.339502427271755    0.668234177063034    0.797040865936211  0.0000
  O2     O2        0.855098553069697    0.850222038444318    0.828612421884783  0.0000
  O2     O2        0.159431237543624    0.833586823744153    0.206194354104837  0.0000
  O3     O3        0.174467542646577    0.159949730043267    0.188906313447276  0.0000
  O2     O2        0.842085226960019    0.172177914538559    0.791371071779574  0.0000
  O2     O2        0.237562121943366    0.268386062115262    0.994400645135135  0.0000
  O2     O2        0.729537534965950    0.252226198472156    0.976899622130931  0.0000
  O2     O2        0.762331112139453    0.759513040082865    0.021289578746632  0.0000
  O2     O2        0.256827873042336    0.753017164681766    0.006621127349552  0.0000
  O3     O3        0.447635089185050    0.386142693046936    0.264272639118272  0.0000
  O3     O3        0.569948841088221    0.396725061888636    0.751287546424186  0.0000
  O2     O2        0.557125557229289    0.617603177232343    0.715509471765981  0.0000
  O2     O2        0.439121469437000    0.610553389625073    0.281181677970070  0.0000
  O3     O3        0.949704758009610    0.863395022361266    0.311668649356676  0.0000
  O2     O2        0.049624655374360    0.881120317333308    0.696587432380050  0.0000
  O2     O2        0.053847499377824    0.131903767596766    0.690942853504694  0.0000
  O3     O3        0.947669530960056    0.137619465592049    0.302838623725239  0.0000
  O3     O3        0.351629673892483    0.373425962163143    0.526003827113723  0.0000
  O3     O3        0.671797010001680    0.378233346867040    0.489275288470012  0.0000
  O2     O2        0.673134713792750    0.634897739429595    0.485478321771042  0.0000
  O2     O2        0.322234680561284    0.627722511682215    0.508734863742813  0.0000
  O3     O3        0.800221225294025    0.892625142985954    0.530426741637562  0.0000
  O2     O2        0.191948357711323    0.893895656621554    0.494157925957608  0.0000
  O3     O3        0.208034182698697    0.115353469626008    0.501465057670381  0.0000
  O2     O2        0.809608805910970    0.113753100992785    0.507775223541448  0.0000
  O3     O3        0.246311605976382    0.503346905608934    0.301227076279307  0.0000
  O3     O3        0.760105083196077    0.517560753794561    0.701086769670477  0.0000
  O3     O3        0.774691007575847    0.006750737037466    0.273397047509493  0.0000
  O2     O2        0.234502190280701    0.004716758687610    0.729363509998775  0.0000
  O2     O2        0.366514139340585    0.504820401092418    0.721646866689054  0.0000
  O2     O2        0.639339420529395    0.503899323980918    0.285131779753785  0.0000
  O2     O2        0.893425971546183    0.009393687986891    0.747705921755375  0.0000
  O3     O3        0.098394072056118    0.993338965240234    0.256020833161799  0.0000
