data_c01192.vasp
_audit_creation_method             Generated by GULP
_audit_author_name                 Salvador R. G. Balestra
_symmetry_space_group_name_H-M     'P 1             '
_symmetry_Int_Tables_number        1

loop_
_symmetry_equiv_pos_site_id
_symmetry_equiv_pos_as_xyz
_cell_length_a                       10.2867
_cell_length_b                       15.2344
_cell_length_c                        8.9136
_cell_angle_alpha                   90.3950
_cell_angle_beta                   105.0772
_cell_angle_gamma                   90.1469

loop_
_atom_site_label
_atom_site_type_symbol
_atom_site_fract_x
_atom_site_fract_y
_atom_site_fract_z
_atom_site_charge
  Ge     Ge        0.306699999999978    0.397900000000050    0.331699999999955  0.0000
  Ge     Ge        0.711508527142376    0.610275637217096    0.660466595907969  0.0000
  Ge     Ge        0.811112173269088    0.894345183788166    0.331753769593820  0.0000
  Ge     Ge        0.107634646538802    0.104637809991202    0.303233207000044  0.0000
  Si     Si        0.352604073035190    0.255216471636161    0.898034577271873  0.0000
  Si     Si        0.645943020323491    0.242885834091067    0.103318357477897  0.0000
  Si     Si        0.657920180546727    0.753130582874044    0.094412262488208  0.0000
  Si     Si        0.364769935234367    0.763889152375029    0.885644009941101  0.0000
  Si     Si        0.875074953595463    0.750726874718713    0.898333673521726  0.0000
  Si     Si        0.170987172078144    0.748391513025547    0.108023075618623  0.0000
  Si     Si        0.141903501523380    0.260259570621103    0.097661842159680  0.0000
  Si     Si        0.845209544264995    0.257508630243674    0.887267904785176  0.0000
  Si     Si        0.708182187491814    0.405257391351869    0.666298141514802  0.0000
  Si     Si        0.312416107406152    0.601627686571564    0.323619601438752  0.0000
  Si     Si        0.207963664299579    0.909540316219378    0.671788955172312  0.0000
  Si     Si        0.204480870278206    0.111064230968728    0.665971128146399  0.0000
  Si     Si        0.805948021185464    0.102139426634513    0.320598474904007  0.0000
  Si     Si        0.409140656433328    0.408379376819937    0.693146348754881  0.0000
  Si     Si        0.610101404311196    0.397362969984677    0.309913231786375  0.0000
  Si     Si        0.609616384034600    0.600047964826161    0.298174305742511  0.0000
  Si     Si        0.407317874860347    0.608907547516512    0.682437834220266  0.0000
  Si     Si        0.909016406287657    0.905570722039292    0.694261179600233  0.0000
  Si     Si        0.112904351073087    0.897910650095321    0.314260064650920  0.0000
  Si     Si        0.902763019282854    0.105994495865339    0.678640379897913  0.0000
  O2     O2        0.490224649036963    0.226905730117421    0.017800777158867  0.0000
  O2     O2        0.520880121374407    0.777799678953039    0.969836900591289  0.0000
  O2     O2        0.025263731957480    0.730282105638421    0.995713874637884  0.0000
  O2     O2        0.988095940190592    0.275751657258696    0.005756215633740  0.0000
  O2     O2        0.310959587393815    0.177262265490510    0.772444697333245  0.0000
  O2     O2        0.686882258754157    0.162400066127330    0.221439204767528  0.0000
  O3     O3        0.686788722612055    0.825633964088798    0.229082959273058  0.0000
  O2     O2        0.320710616894848    0.847885051775551    0.776380101361762  0.0000
  O3     O3        0.835179424112691    0.679003274227095    0.763321854358935  0.0000
  O2     O2        0.202818817715346    0.667717161241529    0.226206791104471  0.0000
  O3     O3        0.178338574108099    0.330062827981420    0.236911862144661  0.0000
  O2     O2        0.813544810185304    0.338297341458476    0.769176639212515  0.0000
  O2     O2        0.370368532896575    0.347293858245687    0.819658921720793  0.0000
  O2     O2        0.669124603832098    0.334721541657604    0.197968318612610  0.0000
  O2     O2        0.649691778764864    0.656785350422139    0.165954212018878  0.0000
  O2     O2        0.341992486203720    0.674764320731212    0.783573852701155  0.0000
  O2     O2        0.866911967714672    0.847466713339934    0.823298870898008  0.0000
  O2     O2        0.179514597274569    0.837735353624629    0.206536143657581  0.0000
  O3     O3        0.163823347295599    0.163696442950745    0.169586569296964  0.0000
  O2     O2        0.846210302475043    0.168226769758264    0.791033247227277  0.0000
  O2     O2        0.238545023537190    0.273875942701872    0.985459900527904  0.0000
  O2     O2        0.731577789677214    0.245815262534355    0.977729828198695  0.0000
  O2     O2        0.777653294701228    0.749741283962986    0.011126654839090  0.0000
  O2     O2        0.280497853730845    0.756077923438210    0.011234037738530  0.0000
  O3     O3        0.459393362812588    0.367129218954496    0.302230224281355  0.0000
  O2     O2        0.559113025462727    0.385944017836406    0.683341553198913  0.0000
  O3     O3        0.559162620873389    0.638158426581201    0.693654501218476  0.0000
  O2     O2        0.459736543320372    0.625781562263971    0.304815264932734  0.0000
  O3     O3        0.964698448855610    0.862644137309301    0.306586428854417  0.0000
  O2     O2        0.062217135918840    0.883538522171225    0.693076211548893  0.0000
  O2     O2        0.055036699220124    0.132831135645433    0.681903082106100  0.0000
  O3     O3        0.945266358382595    0.136359274622045    0.294313778887670  0.0000
  O3     O3        0.309408249309377    0.392274767368439    0.525866469655362  0.0000
  O2     O2        0.704496156386606    0.391472727704362    0.485250231145482  0.0000
  O3     O3        0.707882346702406    0.619151006065566    0.466101005709957  0.0000
  O2     O2        0.317235364853274    0.610577409711492    0.505352005623348  0.0000
  O3     O3        0.812846252066206    0.886301105808680    0.525506109196815  0.0000
  O2     O2        0.205434116145089    0.896942360220564    0.491603272600261  0.0000
  O3     O3        0.208100976944442    0.122125586440393    0.489327230423068  0.0000
  O2     O2        0.810208948358229    0.111016725287319    0.503258622608308  0.0000
  O3     O3        0.272051596324473    0.503827968162665    0.266953501204767  0.0000
  O3     O3        0.751665981630448    0.503509572404777    0.717800816976558  0.0000
  O3     O3        0.780444497911914    0.001310182137139    0.270887998047728  0.0000
  O2     O2        0.242509080842467    0.010965480433274    0.720129973383590  0.0000
  O2     O2        0.404223795222375    0.509969109489433    0.746362514472796  0.0000
  O2     O2        0.613045715949947    0.497477002212638    0.252426648302469  0.0000
  O2     O2        0.898487694112140    0.007283674264901    0.740874351838505  0.0000
  O3     O3        0.107089266220120    0.995963268297674    0.251789754612926  0.0000
