data_c01106.vasp
_audit_creation_method             Generated by GULP
_audit_author_name                 Salvador R. G. Balestra
_symmetry_space_group_name_H-M     'P 1             '
_symmetry_Int_Tables_number        1

loop_
_symmetry_equiv_pos_site_id
_symmetry_equiv_pos_as_xyz
_cell_length_a                       10.1939
_cell_length_b                       15.2352
_cell_length_c                        8.9869
_cell_angle_alpha                   89.6117
_cell_angle_beta                   105.3806
_cell_angle_gamma                   90.1877

loop_
_atom_site_label
_atom_site_type_symbol
_atom_site_fract_x
_atom_site_fract_y
_atom_site_fract_z
_atom_site_charge
  Ge     Ge        0.351599999999962    0.244500000000016    0.893900000000031  0.0000
  Ge     Ge        0.624910729347297    0.401750955399138    0.306857962255519  0.0000
  Ge     Ge        0.408606763741474    0.604577999957269    0.678060411898259  0.0000
  Ge     Ge        0.117067387262025    0.900179086431027    0.304936646321348  0.0000
  Si     Si        0.653980190742628    0.243208423977725    0.104876035438965  0.0000
  Si     Si        0.649275592937588    0.763333394604075    0.103410462455789  0.0000
  Si     Si        0.352273882307240    0.755035731571846    0.892082843196440  0.0000
  Si     Si        0.851301074146265    0.748974578890728    0.892168708393344  0.0000
  Si     Si        0.149913375171398    0.743603536865392    0.096197528120435  0.0000
  Si     Si        0.144137176488969    0.260939183656361    0.103544324433252  0.0000
  Si     Si        0.850086458582163    0.252717385611297    0.893509594109586  0.0000
  Si     Si        0.317478344532114    0.399494962834424    0.320010385400976  0.0000
  Si     Si        0.716479430484381    0.400824225427942    0.668827544529499  0.0000
  Si     Si        0.717103720553650    0.603596413842636    0.668468403577678  0.0000
  Si     Si        0.316465598530885    0.604233888195350    0.321192460010535  0.0000
  Si     Si        0.810963556446670    0.901763851872266    0.327142437129601  0.0000
  Si     Si        0.213269335210431    0.897609376325559    0.665945938180354  0.0000
  Si     Si        0.217543439902461    0.097732119340892    0.668493161279822  0.0000
  Si     Si        0.819429522556991    0.105032245082702    0.333128224645584  0.0000
  Si     Si        0.410031515553152    0.397551649331771    0.674751209978522  0.0000
  Si     Si        0.622001909131412    0.607245919792668    0.312512015879909  0.0000
  Si     Si        0.909571207650480    0.899662721120529    0.680784932557719  0.0000
  Si     Si        0.118906182961227    0.103997727262365    0.309852053646116  0.0000
  Si     Si        0.917278514734710    0.102918254242564    0.687178346461937  0.0000
  O3     O3        0.493969748905921    0.229548981524516    0.042589209042045  0.0000
  O2     O2        0.490446705588667    0.774122404267811    0.021883690330947  0.0000
  O2     O2        0.988959505899271    0.732989697747610    0.024457306391848  0.0000
  O2     O2        0.982673101444677    0.271380147472887    0.031571762851361  0.0000
  O3     O3        0.334281589344662    0.158300501716589    0.766422566688702  0.0000
  O2     O2        0.704218634509770    0.167241387473559    0.232238989390225  0.0000
  O2     O2        0.690773016779150    0.845777648121053    0.216880524884280  0.0000
  O2     O2        0.327559544473233    0.833815457605405    0.767598838316095  0.0000
  O2     O2        0.829961223663418    0.667289925785431    0.774642258178553  0.0000
  O2     O2        0.200326638270529    0.659601015168436    0.204593572158346  0.0000
  O2     O2        0.195153324525657    0.344933809187363    0.210759136783653  0.0000
  O2     O2        0.825080503633852    0.336696027018802    0.779502521301480  0.0000
  O3     O3        0.357581106751921    0.339569115658692    0.793000123539272  0.0000
  O3     O3        0.687121987565074    0.337261746063589    0.185609907073992  0.0000
  O2     O2        0.677393722200999    0.674356003533271    0.205001312877823  0.0000
  O3     O3        0.354733492493868    0.662916290037020    0.811445427093333  0.0000
  O2     O2        0.857464161290806    0.839410717969316    0.799935691273107  0.0000
  O3     O3        0.181643106978005    0.832579581099930    0.191715825901696  0.0000
  O2     O2        0.177861366852319    0.173590408384442    0.209818791247742  0.0000
  O2     O2        0.864426007172771    0.164079666455659    0.802718141740613  0.0000
  O3     O3        0.212377078490343    0.253268776365081    0.965253898251344  0.0000
  O2     O2        0.722358961496253    0.237207789947398    0.963436268799947  0.0000
  O2     O2        0.729488182195047    0.758421561817102    0.972709433475030  0.0000
  O2     O2        0.224437196724728    0.750121378759826    0.962225251494123  0.0000
  O3     O3        0.458227176405026    0.370551480210607    0.288928337201034  0.0000
  O2     O2        0.566120615451296    0.375554252969782    0.680632413508256  0.0000
  O3     O3        0.573817862808559    0.633435649993357    0.689777417247494  0.0000
  O2     O2        0.466448461691043    0.630774616873746    0.307727543511268  0.0000
  O3     O3        0.950717422436359    0.873262691815720    0.293862986301152  0.0000
  O2     O2        0.063568853824338    0.874660788962738    0.684757524006120  0.0000
  O2     O2        0.074282034594688    0.125459086731411    0.700729024215547  0.0000
  O2     O2        0.962887115749527    0.128018379499674    0.300067749695724  0.0000
  O2     O2        0.320440967653930    0.383357826352089    0.498699303118469  0.0000
  O3     O3        0.722407068147249    0.389472263502475    0.494535222353857  0.0000
  O2     O2        0.715358418917062    0.613515534700924    0.488566616466085  0.0000
  O3     O3        0.308360357115115    0.622579415848966    0.492973045496938  0.0000
  O2     O2        0.816239258053594    0.884934103389331    0.506927247149707  0.0000
  O3     O3        0.215197875729998    0.886291588331515    0.491155019661839  0.0000
  O2     O2        0.207396447150968    0.107297691590954    0.487263522687796  0.0000
  O2     O2        0.827751608500479    0.120747806015606    0.512717192192327  0.0000
  O2     O2        0.291851635745616    0.502015811357507    0.279787764889526  0.0000
  O2     O2        0.749216213634085    0.502200614174374    0.719976854915968  0.0000
  O2     O2        0.781951633013870    0.004346208962931    0.288268474675230  0.0000
  O2     O2        0.250814745361034    0.997183897849006    0.720263967888354  0.0000
  O3     O3        0.398766956158158    0.496411206703079    0.726011666158782  0.0000
  O3     O3        0.630369837187349    0.510010214981392    0.251170090265805  0.0000
  O2     O2        0.901568760389972    0.000931180824661    0.730745157190379  0.0000
  O3     O3        0.127357884288218    0.007480006147722    0.245739839304114  0.0000
