data_c01108.vasp
_audit_creation_method             Generated by GULP
_audit_author_name                 Salvador R. G. Balestra
_symmetry_space_group_name_H-M     'P 1             '
_symmetry_Int_Tables_number        1

loop_
_symmetry_equiv_pos_site_id
_symmetry_equiv_pos_as_xyz
_cell_length_a                       10.1909
_cell_length_b                       15.2400
_cell_length_c                        8.9948
_cell_angle_alpha                   89.4865
_cell_angle_beta                   105.4047
_cell_angle_gamma                   90.2143

loop_
_atom_site_label
_atom_site_type_symbol
_atom_site_fract_x
_atom_site_fract_y
_atom_site_fract_z
_atom_site_charge
  Ge     Ge        0.351599999999962    0.244500000000016    0.893900000000031  0.0000
  Ge     Ge        0.624675285499520    0.402021078707461    0.307455202326234  0.0000
  Ge     Ge        0.413206206549714    0.604340932127062    0.683206518458376  0.0000
  Ge     Ge        0.919686037406855    0.102455562916552    0.687786758471845  0.0000
  Si     Si        0.654237238388665    0.245119116342857    0.104027366529854  0.0000
  Si     Si        0.679397084294970    0.758483172839662    0.099251127515004  0.0000
  Si     Si        0.380586290042831    0.760017496275127    0.890999960880493  0.0000
  Si     Si        0.881518763482868    0.741607097696860    0.888587918063939  0.0000
  Si     Si        0.178882859722597    0.751386647337851    0.099035439894534  0.0000
  Si     Si        0.144824919815178    0.260543159664419    0.104696130069645  0.0000
  Si     Si        0.850672899582357    0.254929031110334    0.895943515744698  0.0000
  Si     Si        0.315812925852143    0.402610736202824    0.318489797356726  0.0000
  Si     Si        0.714221262209199    0.398808436822864    0.668728271934327  0.0000
  Si     Si        0.719410861584562    0.602427455548455    0.669003340722936  0.0000
  Si     Si        0.319075314811442    0.604963379978062    0.324121435497456  0.0000
  Si     Si        0.819783469472645    0.902165045823238    0.322743081704395  0.0000
  Si     Si        0.215972354286318    0.895581567561855    0.660108701280799  0.0000
  Si     Si        0.225202220272261    0.098793614376715    0.667590464802906  0.0000
  Si     Si        0.819068644908937    0.103182099511766    0.328944861928000  0.0000
  Si     Si        0.410351635056410    0.398074250940245    0.676302495230203  0.0000
  Si     Si        0.625555214566381    0.606811182728985    0.314007026251312  0.0000
  Si     Si        0.915818425999081    0.894949691955764    0.678434673284634  0.0000
  Si     Si        0.122090887306813    0.902098519412682    0.306086184287871  0.0000
  Si     Si        0.124825163786181    0.102925553171032    0.314205840413210  0.0000
  O3     O3        0.493041039060021    0.235395798826133    0.045844076633463  0.0000
  O2     O2        0.539439610938119    0.774427757690408    0.970955868128884  0.0000
  O2     O2        0.039663974670624    0.731164884549525    0.973239495052318  0.0000
  O2     O2        0.983487367391669    0.273680870894532    0.034583097250491  0.0000
  O3     O3        0.343883317202875    0.154915677464186    0.775003715317124  0.0000
  O2     O2        0.708378603461082    0.164233769656449    0.218373304136486  0.0000
  O2     O2        0.707177740736125    0.841135518173765    0.213509679978802  0.0000
  O2     O2        0.335344359383670    0.834915987590108    0.759721240855024  0.0000
  O2     O2        0.840919438744596    0.658379620900567    0.777114459949375  0.0000
  O2     O2        0.210115924509587    0.668392762810555    0.213711301197357  0.0000
  O2     O2        0.196740990059290    0.342440274684929    0.216441368676524  0.0000
  O2     O2        0.828522630533512    0.336486947096096    0.776116413006431  0.0000
  O3     O3        0.349336875292526    0.337843162616822    0.784810726220964  0.0000
  O3     O3        0.691073241495219    0.336276054388293    0.192803767222094  0.0000
  O2     O2        0.675959885073589    0.671944757021091    0.200708494325155  0.0000
  O3     O3        0.354626465120621    0.666385306217229    0.810257079118262  0.0000
  O2     O2        0.855656651337342    0.830121469608372    0.785486721382947  0.0000
  O2     O2        0.172631387427874    0.840656288167325    0.190363480763180  0.0000
  O2     O2        0.175202136887788    0.169512930296118    0.202319047966116  0.0000
  O3     O3        0.862389057492326    0.163840215850681    0.815027637039241  0.0000
  O3     O3        0.211969910583941    0.253679354547931    0.965430228190454  0.0000
  O2     O2        0.718625230065191    0.245522113977403    0.960055556711992  0.0000
  O2     O2        0.797917318179365    0.746025339142737    0.015441128211038  0.0000
  O2     O2        0.298940469568685    0.767051111922813    0.018797039094341  0.0000
  O3     O3        0.456278880177023    0.374341022084192    0.286402198677100  0.0000
  O2     O2        0.565433590039869    0.371078061046711    0.684436201144109  0.0000
  O3     O3        0.578340895285616    0.635348681590383    0.693495387137371  0.0000
  O2     O2        0.470806751859695    0.628030860114613    0.313345112756996  0.0000
  O2     O2        0.965198461452911    0.881295970711837    0.293288074986243  0.0000
  O2     O2        0.072026984429480    0.868720155465468    0.689653915710857  0.0000
  O3     O3        0.085017496833318    0.131028167698809    0.698854122187498  0.0000
  O2     O2        0.969504933967154    0.123330187932709    0.310956176280785  0.0000
  O2     O2        0.322134718411866    0.391045357566610    0.498617971051740  0.0000
  O3     O3        0.719423114835852    0.386727157951921    0.495024237256810  0.0000
  O2     O2        0.719205246847785    0.614263882303569    0.489659073376630  0.0000
  O3     O3        0.312169158390103    0.618046859345494    0.497282912351438  0.0000
  O2     O2        0.826329131885061    0.885009419658912    0.501629492283628  0.0000
  O2     O2        0.211047054522385    0.883923148376360    0.480606479939021  0.0000
  O2     O2        0.218652769588054    0.114399172596007    0.487690899047855  0.0000
  O3     O3        0.818146784092217    0.119670380666659    0.503148539281610  0.0000
  O2     O2        0.284700821633325    0.504479356308194    0.271427398195324  0.0000
  O2     O2        0.742619742643475    0.500233802293824    0.717213952971241  0.0000
  O2     O2        0.779090393331494    0.002837044147437    0.281409552335012  0.0000
  O2     O2        0.247804055905416    0.996082250821187    0.709036061452735  0.0000
  O3     O3        0.407578212999653    0.496344365015815    0.735932028806051  0.0000
  O3     O3        0.635405198164353    0.509792452838322    0.253067110503882  0.0000
  O3     O3        0.909219322993817    0.992992753443719    0.735019195834951  0.0000
  O2     O2        0.138703046613618    0.003444304321004    0.258916331229450  0.0000
