data_c01118.vasp
_audit_creation_method             Generated by GULP
_audit_author_name                 Salvador R. G. Balestra
_symmetry_space_group_name_H-M     'P 1             '
_symmetry_Int_Tables_number        1

loop_
_symmetry_equiv_pos_site_id
_symmetry_equiv_pos_as_xyz
_cell_length_a                       10.1871
_cell_length_b                       15.2069
_cell_length_c                        9.0033
_cell_angle_alpha                   89.8092
_cell_angle_beta                   105.4386
_cell_angle_gamma                   89.9335

loop_
_atom_site_label
_atom_site_type_symbol
_atom_site_fract_x
_atom_site_fract_y
_atom_site_fract_z
_atom_site_charge
  Ge     Ge        0.351599999999962    0.244500000000016    0.893900000000031  0.0000
  Ge     Ge        0.594352511578392    0.608145935149926    0.316819730850059  0.0000
  Ge     Ge        0.376002269681564    0.607712168164308    0.684625998925101  0.0000
  Ge     Ge        0.882639944094203    0.106546742427947    0.690644537729615  0.0000
  Si     Si        0.654512086896733    0.252718439954595    0.107471225321808  0.0000
  Si     Si        0.645998586061700    0.761459158808106    0.099571545397913  0.0000
  Si     Si        0.346678292799650    0.765030411247567    0.894423958597984  0.0000
  Si     Si        0.848073288799478    0.746648722960467    0.892197701270411  0.0000
  Si     Si        0.144800702174858    0.754273292179791    0.101377333810742  0.0000
  Si     Si        0.146893601717195    0.258801110549511    0.107339702259325  0.0000
  Si     Si        0.852286834694468    0.264580944734107    0.899776220712016  0.0000
  Si     Si        0.285595321743541    0.406236457769481    0.324327967471299  0.0000
  Si     Si        0.676535126667383    0.400748609081037    0.672870234128477  0.0000
  Si     Si        0.684908143554100    0.606456407160278    0.672666062641789  0.0000
  Si     Si        0.281114362787934    0.608076566259872    0.326917817426873  0.0000
  Si     Si        0.782135504524303    0.904508496989539    0.326079146780206  0.0000
  Si     Si        0.178568825259815    0.899307284379392    0.662186084773271  0.0000
  Si     Si        0.186802047224868    0.104497282908590    0.667295534178362  0.0000
  Si     Si        0.780269486219865    0.104152698466977    0.330943749458444  0.0000
  Si     Si        0.375519571141129    0.401824462617056    0.683293330028372  0.0000
  Si     Si        0.589584507395104    0.401684170719850    0.316955423680890  0.0000
  Si     Si        0.880323536843678    0.899614678067925    0.682221770860325  0.0000
  Si     Si        0.085207355121488    0.904149855379676    0.309786595470158  0.0000
  Si     Si        0.086555520302609    0.105881426486189    0.316180936079389  0.0000
  O3     O3        0.524616809181937    0.238933211204452    0.967879132285701  0.0000
  O2     O2        0.506002596531659    0.780102584817718    0.971634631689515  0.0000
  O2     O2        0.007610412705725    0.736192387090412    0.970537434387798  0.0000
  O2     O2        0.014315305838843    0.278146732533687    0.967506099601656  0.0000
  O3     O3        0.311866717024164    0.154820283962885    0.774433773747428  0.0000
  O2     O2        0.673650217194764    0.167820136241829    0.218437261626180  0.0000
  O2     O2        0.670264122354129    0.838041712639435    0.228142105939828  0.0000
  O2     O2        0.299322718710845    0.841078324350773    0.766330840946146  0.0000
  O2     O2        0.802071282308504    0.658952336584639    0.794055267838408  0.0000
  O2     O2        0.170634912659752    0.670860600270711    0.215275600316047  0.0000
  O2     O2        0.171989053637756    0.341264054355063    0.224450502889770  0.0000
  O2     O2        0.797584964852881    0.342888868089965    0.777804924083160  0.0000
  O3     O3        0.308969463187231    0.338593157572690    0.783066132196772  0.0000
  O2     O2        0.644761414830620    0.338406400511308    0.206700910885047  0.0000
  O3     O3        0.643536843922783    0.668451945768354    0.180751216276840  0.0000
  O3     O3        0.320061957496120    0.671404312811737    0.812203348728304  0.0000
  O2     O2        0.818276260043012    0.832092342176341    0.782081236992088  0.0000
  O2     O2        0.136453978358737    0.843613000203512    0.192725205846679  0.0000
  O2     O2        0.128022299943015    0.169494968473850    0.195493819165373  0.0000
  O3     O3        0.822725420312157    0.172036251794798    0.812996054218447  0.0000
  O3     O3        0.275106244076039    0.244142891664999    0.041356043373083  0.0000
  O2     O2        0.784665658662663    0.266567028597801    0.041003771986366  0.0000
  O2     O2        0.769373273665589    0.760148343690009    0.021523012141619  0.0000
  O2     O2        0.268639788112492    0.768754474968912    0.026337978357231  0.0000
  O2     O2        0.430712158134162    0.380957382591410    0.297191016319729  0.0000
  O2     O2        0.532446014212000    0.372011644895354    0.700698345159066  0.0000
  O3     O3        0.538784035770482    0.638732911231539    0.685579683040656  0.0000
  O3     O3        0.430829493861188    0.634539539656128    0.317838514211713  0.0000
  O2     O2        0.927880718081380    0.883944480664809    0.296425319781540  0.0000
  O2     O2        0.035656041035223    0.871374612712580    0.692628898812528  0.0000
  O3     O3        0.047861017243329    0.137398548175886    0.701550245125023  0.0000
  O2     O2        0.932314798250654    0.123414097739275    0.318685719366286  0.0000
  O2     O2        0.291433267144307    0.397130215926827    0.503855468919781  0.0000
  O2     O2        0.673736219584937    0.386390271254386    0.494561621829297  0.0000
  O3     O3        0.697543302722444    0.622510646445550    0.501248384389661  0.0000
  O3     O3        0.271285262994067    0.618631575235359    0.500022366636434  0.0000
  O2     O2        0.790208910226024    0.892710715608080    0.505770339617045  0.0000
  O2     O2        0.174240388792884    0.883959490038310    0.483609330450208  0.0000
  O2     O2        0.181724569057254    0.121796434932855    0.488036691416527  0.0000
  O3     O3        0.778837209660195    0.118439519504108    0.505600280236302  0.0000
  O2     O2        0.249779464805963    0.506896804651727    0.271931818380192  0.0000
  O2     O2        0.701943251969897    0.502960690143306    0.714567048781042  0.0000
  O2     O2        0.737691775877910    0.004368176193523    0.277366297949024  0.0000
  O2     O2        0.204694389476700    0.000948824805840    0.704626904007061  0.0000
  O3     O3        0.372797818794983    0.500183404435502    0.743566968741059  0.0000
  O3     O3        0.606084612735539    0.500045664790639    0.265106469254297  0.0000
  O3     O3        0.876090471681528    0.997492436589000    0.743545450473771  0.0000
  O2     O2        0.103564501822971    0.005505014901037    0.265428217887304  0.0000
