data_c01124.vasp
_audit_creation_method             Generated by GULP
_audit_author_name                 Salvador R. G. Balestra
_symmetry_space_group_name_H-M     'P 1             '
_symmetry_Int_Tables_number        1

loop_
_symmetry_equiv_pos_site_id
_symmetry_equiv_pos_as_xyz
_cell_length_a                       10.1815
_cell_length_b                       15.2574
_cell_length_c                        8.9824
_cell_angle_alpha                   90.1962
_cell_angle_beta                   105.4105
_cell_angle_gamma                   89.7515

loop_
_atom_site_label
_atom_site_type_symbol
_atom_site_fract_x
_atom_site_fract_y
_atom_site_fract_z
_atom_site_charge
  Ge     Ge        0.351599999999962    0.244500000000016    0.893900000000031  0.0000
  Ge     Ge        0.631700050456963    0.595061488202866    0.311624943029809  0.0000
  Ge     Ge        0.125429031386289    0.096126996173620    0.305987468001421  0.0000
  Ge     Ge        0.918256203352053    0.095120747411204    0.692264026817230  0.0000
  Si     Si        0.649658145672207    0.234339923369007    0.114603929844694  0.0000
  Si     Si        0.662023086590160    0.752413517195316    0.100874252825324  0.0000
  Si     Si        0.363217766656361    0.748685115484999    0.893689547873916  0.0000
  Si     Si        0.862904467940900    0.738298260763083    0.892774201905723  0.0000
  Si     Si        0.159706538641914    0.735655638976316    0.102526830998558  0.0000
  Si     Si        0.147656622594950    0.257020624844271    0.102038192114878  0.0000
  Si     Si        0.848831979510575    0.247082651576274    0.904778287008953  0.0000
  Si     Si        0.321340939459119    0.394543244643321    0.327738237461216  0.0000
  Si     Si        0.715150804663317    0.391544463385322    0.677140927679559  0.0000
  Si     Si        0.724982037376821    0.591930396043858    0.672974752143228  0.0000
  Si     Si        0.323460574451788    0.598296430303452    0.327222636846361  0.0000
  Si     Si        0.825786466719773    0.891336624685604    0.328177058946518  0.0000
  Si     Si        0.222677444176507    0.892524072420390    0.666872141875346  0.0000
  Si     Si        0.225807766684397    0.093830926396873    0.673843292120902  0.0000
  Si     Si        0.820019294826299    0.094392696365139    0.327128166900669  0.0000
  Si     Si        0.411409826252116    0.396766627106832    0.682785861338522  0.0000
  Si     Si        0.625141243714405    0.390122940782250    0.318263517677556  0.0000
  Si     Si        0.418442219552440    0.599321481346090    0.679093669749406  0.0000
  Si     Si        0.917955228687475    0.889607947957655    0.681668936570611  0.0000
  Si     Si        0.129488182795625    0.891227995289101    0.309652704618806  0.0000
  O3     O3        0.489211186012007    0.228244346789052    0.047994915291839  0.0000
  O2     O2        0.501858678795531    0.766091063965825    0.024059460221118  0.0000
  O2     O2        0.001143507161806    0.722139981140797    0.023398768860026  0.0000
  O2     O2        0.984034005957983    0.266595298717365    0.040910022966235  0.0000
  O3     O3        0.342335267469040    0.155732680838567    0.772737089253646  0.0000
  O2     O2        0.696433273071359    0.149012084756220    0.219176476555252  0.0000
  O2     O2        0.709482893576288    0.831594939252470    0.221709781565562  0.0000
  O2     O2        0.334562989351219    0.829112836782395    0.773531165980233  0.0000
  O2     O2        0.836625427951707    0.652690027949436    0.784769532215904  0.0000
  O2     O2        0.203493588703568    0.654653167807682    0.218173766431727  0.0000
  O2     O2        0.202425641597704    0.336597235726273    0.220927503955378  0.0000
  O2     O2        0.825804572912526    0.324934455583542    0.778001241048156  0.0000
  O3     O3        0.353260325372911    0.341790181818016    0.798084162548664  0.0000
  O2     O2        0.687179261821279    0.321436904459279    0.220013679447493  0.0000
  O3     O3        0.691626590066151    0.660862505966658    0.190111508489745  0.0000
  O2     O2        0.371218918253734    0.659213526743007    0.801636887280493  0.0000
  O2     O2        0.869919656237676    0.823982402608376    0.793657712304280  0.0000
  O2     O2        0.184155883364782    0.825837658212452    0.199548145559128  0.0000
  O3     O3        0.187094097588546    0.165527468242547    0.191639059062126  0.0000
  O3     O3        0.858643917503354    0.155779802551239    0.820974326177896  0.0000
  O3     O3        0.207631183927349    0.258001488609057    0.956782925257314  0.0000
  O2     O2        0.719932509118939    0.241630557897879    0.975153061601431  0.0000
  O2     O2        0.739550112130396    0.754269402060847    0.968311670157389  0.0000
  O2     O2        0.241313977788733    0.738490112558706    0.973351582219106  0.0000
  O2     O2        0.465633665089878    0.368563174536936    0.297781215600723  0.0000
  O2     O2        0.568517726285179    0.369638009929790    0.703197293426733  0.0000
  O2     O2        0.574550315683595    0.618746351856144    0.684680444888577  0.0000
  O3     O3        0.465613429016645    0.625053603596309    0.297511526595104  0.0000
  O2     O2        0.966558717804969    0.881195939154397    0.279994944181029  0.0000
  O2     O2        0.080880073911967    0.883964061868894    0.711611775013732  0.0000
  O3     O3        0.091801243168766    0.107649706886930    0.733906412857023  0.0000
  O3     O3        0.951606097186994    0.109043822920449    0.265659282365893  0.0000
  O2     O2        0.326140750983000    0.378205214694577    0.506230661865352  0.0000
  O2     O2        0.708798454349744    0.380794804744002    0.497162408173014  0.0000
  O3     O3        0.730954502633880    0.604826565814773    0.499060799153543  0.0000
  O2     O2        0.326589689741416    0.617077690949260    0.505651248489176  0.0000
  O2     O2        0.846325493829465    0.862031251887293    0.505029254408738  0.0000
  O2     O2        0.203581695933925    0.868339923701349    0.487782587145680  0.0000
  O3     O3        0.195826522007021    0.120969166583674    0.496582205966431  0.0000
  O3     O3        0.846592367908882    0.124819357068148    0.503126087036605  0.0000
  O2     O2        0.292119093296209    0.496384227024515    0.286730667263994  0.0000
  O2     O2        0.757413232785119    0.491285662435173    0.726818256639528  0.0000
  O2     O2        0.778395078208046    0.992071504505104    0.312424961290064  0.0000
  O2     O2        0.273818862233173    0.992336110576664    0.694136288095815  0.0000
  O2     O2        0.401725433168263    0.499011325201097    0.724086020782540  0.0000
  O3     O3        0.639187124702865    0.486771649192521    0.257905194111868  0.0000
  O3     O3        0.877721958208152    0.987026347474729    0.716014688844396  0.0000
  O3     O3        0.163661391385409    0.988896689096680    0.270369566887094  0.0000
