data_c01117.vasp
_audit_creation_method             Generated by GULP
_audit_author_name                 Salvador R. G. Balestra
_symmetry_space_group_name_H-M     'P 1             '
_symmetry_Int_Tables_number        1

loop_
_symmetry_equiv_pos_site_id
_symmetry_equiv_pos_as_xyz
_cell_length_a                       10.1964
_cell_length_b                       15.2285
_cell_length_c                        8.9887
_cell_angle_alpha                   90.0107
_cell_angle_beta                   105.4856
_cell_angle_gamma                   89.5767

loop_
_atom_site_label
_atom_site_type_symbol
_atom_site_fract_x
_atom_site_fract_y
_atom_site_fract_z
_atom_site_charge
  Ge     Ge        0.351599999999962    0.244500000000016    0.893900000000031  0.0000
  Ge     Ge        0.623730211606357    0.605833158414055    0.313354771056933  0.0000
  Ge     Ge        0.407039811618002    0.602207001660324    0.682033780411412  0.0000
  Ge     Ge        0.123890492913260    0.104236398401445    0.314764390174910  0.0000
  Si     Si        0.653911663014339    0.244198540115206    0.111449026765724  0.0000
  Si     Si        0.650720154733120    0.763990722149949    0.100941146382264  0.0000
  Si     Si        0.352369950580897    0.754009925824318    0.896653561501289  0.0000
  Si     Si        0.849984953673054    0.748454809772216    0.890979317710622  0.0000
  Si     Si        0.147510461105440    0.744917348104919    0.101097361592102  0.0000
  Si     Si        0.146855016501695    0.262413062830718    0.101437727322102  0.0000
  Si     Si        0.850813749135169    0.252478040155491    0.897037457249630  0.0000
  Si     Si        0.320523643393500    0.402121653239898    0.318221352707480  0.0000
  Si     Si        0.711637093345523    0.397754548041136    0.669808354470787  0.0000
  Si     Si        0.718485605334694    0.600261721974820    0.670898319623607  0.0000
  Si     Si        0.313931743974403    0.606108664194922    0.325083835946691  0.0000
  Si     Si        0.814743086463793    0.902317219082867    0.326699704133552  0.0000
  Si     Si        0.209742973267911    0.893166898273403    0.664891708774859  0.0000
  Si     Si        0.220852748821506    0.093579770364256    0.677199556176608  0.0000
  Si     Si        0.818115921264185    0.105677430725534    0.336130324406760  0.0000
  Si     Si        0.408262515127456    0.396380762793895    0.675176351337024  0.0000
  Si     Si        0.622561209553607    0.399974152750180    0.310309018603509  0.0000
  Si     Si        0.908814555845672    0.897868887344272    0.680644431241608  0.0000
  Si     Si        0.115679042160610    0.899062284734646    0.308218954399123  0.0000
  Si     Si        0.916133355605298    0.100918712120337    0.690224770605119  0.0000
  O3     O3        0.494150877502140    0.235844000658859    0.043262722545199  0.0000
  O2     O2        0.490490918820525    0.777000859019558    0.024471001390926  0.0000
  O2     O2        0.988621846938120    0.733822951272650    0.021976914555109  0.0000
  O2     O2        0.983851269278750    0.272170652655992    0.034548805155342  0.0000
  O3     O3        0.336760335985726    0.149073792511187    0.788347358477982  0.0000
  O2     O2        0.698565322795278    0.164386078202127    0.230945713833576  0.0000
  O2     O2        0.696594957108631    0.844213774534834    0.219805633894588  0.0000
  O2     O2        0.323562132969649    0.825829195275846    0.759008603611547  0.0000
  O2     O2        0.828071497820158    0.661904327342859    0.785002996033340  0.0000
  O2     O2        0.195246222471430    0.660467285726952    0.208132761449066  0.0000
  O2     O2        0.200137444457692    0.344878339967736    0.213355809493775  0.0000
  O2     O2        0.823724212797411    0.331839776640533    0.772860253098826  0.0000
  O3     O3        0.345424701941679    0.333071546986465    0.775272370496554  0.0000
  O2     O2        0.686328536754343    0.335770591479910    0.205451073785742  0.0000
  O3     O3        0.681420955951916    0.672601724303942    0.191513553723525  0.0000
  O3     O3        0.361539555765295    0.659545127329193    0.824307630237246  0.0000
  O2     O2        0.851960699056301    0.835907561611802    0.791520015642035  0.0000
  O2     O2        0.174115145143008    0.832694706001733    0.203665264374239  0.0000
  O3     O3        0.185115370622706    0.173131100190405    0.199277305760133  0.0000
  O2     O2        0.867222344466601    0.161341195076257    0.811570632781601  0.0000
  O3     O3        0.210295647157903    0.260364288661941    0.959480493495183  0.0000
  O2     O2        0.725366160222104    0.242076912916798    0.972178692329016  0.0000
  O2     O2        0.726686427913557    0.763380641667797    0.966861136070220  0.0000
  O2     O2        0.227807237057606    0.754349029837504    0.972518167932589  0.0000
  O2     O2        0.464748944375611    0.373848116753191    0.289946916887720  0.0000
  O2     O2        0.566257947845382    0.371633980149395    0.693747165369167  0.0000
  O3     O3        0.569027921483494    0.628995019424256    0.677490120940243  0.0000
  O3     O3        0.460322104247822    0.636669307682352    0.311098824667706  0.0000
  O2     O2        0.958205542469734    0.877080592281263    0.295016604373877  0.0000
  O2     O2        0.064015458935297    0.870949132160477    0.692677531333299  0.0000
  O2     O2        0.072622612444952    0.120715011017157    0.698441783132525  0.0000
  O3     O3        0.958265306881166    0.133432368767032    0.304204603974306  0.0000
  O2     O2        0.324121208282282    0.387777868701086    0.496199731286610  0.0000
  O2     O2        0.707260938283151    0.389662451876563    0.489596097160753  0.0000
  O3     O3        0.729417560387465    0.612436454067590    0.498219148331881  0.0000
  O3     O3        0.302988115519252    0.619261156711881    0.498015282680211  0.0000
  O2     O2        0.819276641116033    0.884242657724795    0.504969443788914  0.0000
  O2     O2        0.203342169983040    0.885703401847958    0.484917468379296  0.0000
  O3     O3        0.221569772598405    0.111170612032262    0.502266747756801  0.0000
  O2     O2        0.824831901201183    0.119766749414750    0.516595554813222  0.0000
  O2     O2        0.293917448361412    0.504144213469113    0.275831928066879  0.0000
  O2     O2        0.746789589108168    0.498138973599894    0.722917619198382  0.0000
  O2     O2        0.784281795045458    0.004610529863198    0.289125036311791  0.0000
  O2     O2        0.251129114178084    0.991459358166143    0.721200882741007  0.0000
  O3     O3        0.398298168623666    0.494372044619464    0.733385643177786  0.0000
  O3     O3        0.629509739397055    0.498366712100565    0.253480678343796  0.0000
  O2     O2        0.899783671118149    0.998951466455781    0.732455716044525  0.0000
  O3     O3        0.129637179543531    0.996992977148133    0.253172622600599  0.0000
