data_c01178.vasp
_audit_creation_method             Generated by GULP
_audit_author_name                 Salvador R. G. Balestra
_symmetry_space_group_name_H-M     'P 1             '
_symmetry_Int_Tables_number        1

loop_
_symmetry_equiv_pos_site_id
_symmetry_equiv_pos_as_xyz
_cell_length_a                       10.2160
_cell_length_b                       15.2707
_cell_length_c                        8.9417
_cell_angle_alpha                   90.3820
_cell_angle_beta                   105.3168
_cell_angle_gamma                   89.5397

loop_
_atom_site_label
_atom_site_type_symbol
_atom_site_fract_x
_atom_site_fract_y
_atom_site_fract_z
_atom_site_charge
  Ge     Ge        0.306699999999978    0.397900000000050    0.331699999999955  0.0000
  Ge     Ge        0.709475809758989    0.398573994153044    0.680381785883816  0.0000
  Ge     Ge        0.612435078693971    0.601126117252196    0.309787776475930  0.0000
  Ge     Ge        0.114114508311316    0.099847371206542    0.316166177160700  0.0000
  Si     Si        0.343126852348145    0.249223652703808    0.901425107278140  0.0000
  Si     Si        0.641587042725988    0.239803322876793    0.105167144886170  0.0000
  Si     Si        0.645726265642097    0.759634067709189    0.103708172507810  0.0000
  Si     Si        0.348302099767947    0.753673326482276    0.897744970950466  0.0000
  Si     Si        0.848289178345823    0.749235299265508    0.896300587326340  0.0000
  Si     Si        0.145022677582510    0.742166422599599    0.107959798442123  0.0000
  Si     Si        0.142417534981828    0.254810979375315    0.111285925855698  0.0000
  Si     Si        0.846048779642941    0.247968462605299    0.898763017895081  0.0000
  Si     Si        0.711238459388845    0.602204124762418    0.672862616677856  0.0000
  Si     Si        0.304640915136411    0.601654146485397    0.331181883858586  0.0000
  Si     Si        0.810670400670193    0.897012091716854    0.330773263146237  0.0000
  Si     Si        0.206930532870910    0.899406180415569    0.675477672993253  0.0000
  Si     Si        0.206361803710309    0.100106000070482    0.679238025319946  0.0000
  Si     Si        0.806649223034883    0.100652792231356    0.327875487295687  0.0000
  Si     Si        0.408033455256181    0.399390479655112    0.698773675527609  0.0000
  Si     Si        0.609944108799992    0.395697355411610    0.310432069924946  0.0000
  Si     Si        0.406799091589947    0.600416465379150    0.688641339045886  0.0000
  Si     Si        0.904273474027792    0.898345229219245    0.686191983417667  0.0000
  Si     Si        0.111340667808829    0.895513949668402    0.315852884524925  0.0000
  Si     Si        0.899311732247378    0.099231874349037    0.683494344329106  0.0000
  O2     O2        0.482423734458763    0.228448479130102    0.027899027735663  0.0000
  O2     O2        0.486343370853219    0.773988850641163    0.026675915137240  0.0000
  O2     O2        0.987185134961255    0.730080234466894    0.024316497072521  0.0000
  O2     O2        0.981991523239476    0.256351871415136    0.035091500457003  0.0000
  O2     O2        0.312120934826316    0.165176348086111    0.788613221445052  0.0000
  O2     O2        0.686562509274462    0.157607764929479    0.219486657072909  0.0000
  O2     O2        0.692170434438134    0.837121450209674    0.229189794089485  0.0000
  O2     O2        0.318223633645937    0.833679960103485    0.776516988850252  0.0000
  O2     O2        0.819076125272484    0.666637449192849    0.781382799780419  0.0000
  O2     O2        0.188310051456029    0.663551151028928    0.228737279536527  0.0000
  O3     O3        0.175994429860634    0.332791586197118    0.234651493506955  0.0000
  O3     O3        0.832905309671866    0.329764400348702    0.785637667982776  0.0000
  O2     O2        0.346908713462895    0.338343528641173    0.808742100733946  0.0000
  O2     O2        0.670476306229635    0.329548148969158    0.203845243029724  0.0000
  O3     O3        0.671099752257132    0.666351528664156    0.186823049924997  0.0000
  O2     O2        0.358954793393608    0.663338285964466    0.808023964202533  0.0000
  O2     O2        0.853073819554487    0.837853296909457    0.802965724942364  0.0000
  O2     O2        0.171034677245091    0.831997873768844    0.206373677072691  0.0000
  O3     O3        0.181950758674692    0.163441064721517    0.198971099455796  0.0000
  O2     O2        0.844975078357078    0.158903631711373    0.801202650343718  0.0000
  O2     O2        0.223653734481587    0.265781410539704    0.982812929260563  0.0000
  O2     O2        0.718814506570796    0.242722155914276    0.971319981727303  0.0000
  O2     O2        0.726005846856639    0.763884256710454    0.973673474533532  0.0000
  O2     O2        0.228165998570747    0.743161093077763    0.979774949612011  0.0000
  O3     O3        0.446789179400882    0.390308278553321    0.259724253181141  0.0000
  O3     O3        0.569606116804856    0.392201046115383    0.752888274942536  0.0000
  O2     O2        0.569035428823388    0.603119144500225    0.720702384518791  0.0000
  O3     O3        0.438552746564417    0.608841060213638    0.271247449624310  0.0000
  O2     O2        0.955018863593540    0.870358538056410    0.301973585257229  0.0000
  O2     O2        0.061342407164976    0.876844015323480    0.701934334164441  0.0000
  O2     O2        0.055264830230175    0.120972952041385    0.694357410705076  0.0000
  O3     O3        0.947927114247240    0.129837111910622    0.300419676227224  0.0000
  O3     O3        0.351928032571545    0.367445486804974    0.523596220610030  0.0000
  O3     O3        0.664452732481436    0.367910805689618    0.488452122035735  0.0000
  O3     O3        0.686536656971072    0.633154066377717    0.497721827944124  0.0000
  O2     O2        0.338461781301839    0.630099588042795    0.512578606912906  0.0000
  O2     O2        0.816203709156891    0.881579021409642    0.510507586966197  0.0000
  O2     O2        0.199882461826747    0.887835780667140    0.494244859831055  0.0000
  O3     O3        0.210191834776722    0.113775902190435    0.504356534998016  0.0000
  O2     O2        0.809949305714877    0.115979492863230    0.508244506686583  0.0000
  O3     O3        0.248485741021307    0.504243239492169    0.314855197730395  0.0000
  O3     O3        0.769686228656818    0.504282303159173    0.693174423815553  0.0000
  O2     O2        0.779666470168566    0.998307775955878    0.285872422162224  0.0000
  O2     O2        0.246625823499879    0.999272088622819    0.727522981975208  0.0000
  O2     O2        0.363491805246370    0.501046131482754    0.714047305974484  0.0000
  O3     O3        0.656332525972446    0.493462116625401    0.286893655944676  0.0000
  O2     O2        0.886353461803943    0.998985060577479    0.732189225226269  0.0000
  O3     O3        0.120412245538465    0.992822230610665    0.258036736689959  0.0000
