data_c01218.vasp
_audit_creation_method             Generated by GULP
_audit_author_name                 Salvador R. G. Balestra
_symmetry_space_group_name_H-M     'P 1             '
_symmetry_Int_Tables_number        1

loop_
_symmetry_equiv_pos_site_id
_symmetry_equiv_pos_as_xyz
_cell_length_a                       10.2566
_cell_length_b                       15.1966
_cell_length_c                        8.9596
_cell_angle_alpha                   88.9577
_cell_angle_beta                   105.3921
_cell_angle_gamma                   90.1248

loop_
_atom_site_label
_atom_site_type_symbol
_atom_site_fract_x
_atom_site_fract_y
_atom_site_fract_z
_atom_site_charge
  Ge     Ge        0.306699999999978    0.397900000000050    0.331699999999955  0.0000
  Ge     Ge        0.728925577792435    0.580219189876427    0.694265536334670  0.0000
  Ge     Ge        0.127920034358868    0.897619388825457    0.317817678528888  0.0000
  Ge     Ge        0.907706116043992    0.080500428784253    0.708147606211627  0.0000
  Si     Si        0.368884090909543    0.233853292790811    0.910680797202848  0.0000
  Si     Si        0.666156965189501    0.235107382313506    0.120923399196116  0.0000
  Si     Si        0.666743671605570    0.744266041118674    0.115285165079091  0.0000
  Si     Si        0.369471013234800    0.743011789798517    0.905042562091061  0.0000
  Si     Si        0.876613817783326    0.724556521885822    0.915151314353412  0.0000
  Si     Si        0.173000323921079    0.743056875014676    0.120355870382446  0.0000
  Si     Si        0.159013767055135    0.253562879830383    0.110813555398004  0.0000
  Si     Si        0.862627155478668    0.235062232886802    0.905610556582939  0.0000
  Si     Si        0.705130004018090    0.376165218286988    0.675148658391366  0.0000
  Si     Si        0.330495334681274    0.601954159708867    0.350817731493154  0.0000
  Si     Si        0.823212713781166    0.886962409007930    0.334138559183131  0.0000
  Si     Si        0.222905313143087    0.888284313740686    0.679414853272875  0.0000
  Si     Si        0.212413376303107    0.091156869164895    0.691828197598064  0.0000
  Si     Si        0.812720563708546    0.089834907326026    0.346550972183876  0.0000
  Si     Si        0.404825567405303    0.387154303724774    0.694455419041684  0.0000
  Si     Si        0.612199548564820    0.388752782488613    0.319105646598662  0.0000
  Si     Si        0.630799868389872    0.590964482370943    0.331509337549337  0.0000
  Si     Si        0.423426533902484    0.589366322696569    0.706860181689186  0.0000
  Si     Si        0.920344857023196    0.875949927062718    0.690796101733308  0.0000
  Si     Si        0.115281405201967    0.102169777966349    0.335169927968078  0.0000
  O2     O2        0.523369597709479    0.216905106058513    0.001767535564817  0.0000
  O2     O2        0.512260171568212    0.761215627168444    0.024193193422786  0.0000
  O2     O2        0.016643123526512    0.720777487052245    0.045981776871673  0.0000
  O2     O2        0.018986229208344    0.257339966188864    0.979979474382737  0.0000
  O2     O2        0.327240071807386    0.152376077104788    0.796044441136563  0.0000
  O2     O2        0.698386239586372    0.152752038655939    0.240471359159403  0.0000
  O2     O2        0.708386235688694    0.825742953939218    0.229922617880030  0.0000
  O2     O2        0.337238960179575    0.825366600626313    0.785493803711285  0.0000
  O3     O3        0.857035679411700    0.636732911427655    0.817158026799961  0.0000
  O2     O2        0.226743060688501    0.676499746280736    0.264798012948583  0.0000
  O3     O3        0.178590017672042    0.341387355488176    0.208804707287676  0.0000
  O2     O2        0.808882191570403    0.301619734020166    0.761169453392125  0.0000
  O2     O2        0.351875248712751    0.325203772294105    0.812735205529822  0.0000
  O2     O2        0.668776766045983    0.326829154951542    0.207776807524050  0.0000
  O2     O2        0.683749805036568    0.652915472735281    0.213230015723965  0.0000
  O2     O2        0.366849578484346    0.651289337133651    0.818190300501760  0.0000
  O2     O2        0.868800199669376    0.805348129257730    0.795055287535352  0.0000
  O3     O3        0.187778542309921    0.840528122746731    0.186100042843457  0.0000
  O2     O2        0.166825951699175    0.172772712209124    0.230912340160230  0.0000
  O3     O3        0.847846511677478    0.137591257532694    0.839864968561107  0.0000
  O2     O2        0.280003203311013    0.240432651951509    0.031357978399129  0.0000
  O2     O2        0.781347480983885    0.245239157620806    0.032555389346972  0.0000
  O2     O2        0.755627819285024    0.737686089139491    0.994611752892419  0.0000
  O2     O2        0.254285105700172    0.732879857569707    0.993416360162674  0.0000
  O3     O3        0.458732105076471    0.363530282853325    0.305144857982893  0.0000
  O2     O2        0.554859404544020    0.356969797504603    0.691745907247697  0.0000
  O3     O3        0.576893756364733    0.614589208239278    0.720821185425460  0.0000
  O2     O2        0.480765581753047    0.621148678314777    0.334218388682865  0.0000
  O3     O3        0.965675393564036    0.862525806686365    0.305970556572937  0.0000
  O2     O2        0.075466935473811    0.857723664475557    0.692260685535937  0.0000
  O3     O3        0.069950693023294    0.115594050712751    0.719995341753433  0.0000
  O2     O2        0.960158880704549    0.120395231846944    0.333704892385509  0.0000
  O3     O3        0.307140562855106    0.381334899939276    0.523465975625008  0.0000
  O2     O2        0.702382686499975    0.374676127921637    0.494790636762525  0.0000
  O3     O3        0.728485180160525    0.596783363607011    0.502499239137528  0.0000
  O2     O2        0.333243888400093    0.603444357928443    0.531175629240511  0.0000
  O2     O2        0.828073654412310    0.871063019391840    0.514523848513110  0.0000
  O3     O3        0.228627180633696    0.882103479220597    0.503986740403194  0.0000
  O2     O2        0.207552485979879    0.107056116461065    0.511442706485921  0.0000
  O3     O3        0.806999350261334    0.096016464760709    0.521978807237236  0.0000
  O3     O3        0.281095799068816    0.507833747801825    0.283379819208213  0.0000
  O3     O3        0.754528986865418    0.470285633808450    0.742588178278377  0.0000
  O2     O2        0.787570685569582    0.989272222118078    0.289747036123946  0.0000
  O2     O2        0.248055326489335    0.988847013843328    0.736220134632063  0.0000
  O2     O2        0.411012184813649    0.487254704143886    0.755113646173639  0.0000
  O2     O2        0.624614089707638    0.490864044194754    0.270849441335992  0.0000
  O3     O3        0.907584396755676    0.970832107325103    0.758581286992798  0.0000
  O3     O3        0.128043146485615    0.007287776645243    0.267382926322568  0.0000
