data_c01213.vasp
_audit_creation_method             Generated by GULP
_audit_author_name                 Salvador R. G. Balestra
_symmetry_space_group_name_H-M     'P 1             '
_symmetry_Int_Tables_number        1

loop_
_symmetry_equiv_pos_site_id
_symmetry_equiv_pos_as_xyz
_cell_length_a                       10.1948
_cell_length_b                       15.2611
_cell_length_c                        8.9317
_cell_angle_alpha                   89.8657
_cell_angle_beta                   105.0774
_cell_angle_gamma                   90.3082

loop_
_atom_site_label
_atom_site_type_symbol
_atom_site_fract_x
_atom_site_fract_y
_atom_site_fract_z
_atom_site_charge
  Ge     Ge        0.306699999999978    0.397900000000050    0.331699999999955  0.0000
  Ge     Ge        0.725200339356900    0.603576537015501    0.666296371221192  0.0000
  Ge     Ge        0.617654408391554    0.393430725083966    0.305872104186718  0.0000
  Ge     Ge        0.118550610529728    0.105553139230173    0.303199517600561  0.0000
  Si     Si        0.352549633887080    0.254689627577995    0.897620716947118  0.0000
  Si     Si        0.645416423759136    0.234191245307462    0.101268953839757  0.0000
  Si     Si        0.678599997933014    0.753893546507979    0.099020405831482  0.0000
  Si     Si        0.383452120099917    0.764044012154826    0.891796259950797  0.0000
  Si     Si        0.888924538858022    0.745602428403714    0.894379447116515  0.0000
  Si     Si        0.186008800016679    0.749644875019277    0.110208857972814  0.0000
  Si     Si        0.140678097491232    0.263228892546193    0.094382080960563  0.0000
  Si     Si        0.841641273549907    0.247973338122531    0.885861326834769  0.0000
  Si     Si        0.715555956553505    0.401524874681006    0.663690422390431  0.0000
  Si     Si        0.323698557470591    0.603499356488337    0.331599303069739  0.0000
  Si     Si        0.827533524031103    0.894199924005896    0.330375125801648  0.0000
  Si     Si        0.222786213776123    0.907536174141141    0.673501341985585  0.0000
  Si     Si        0.213276425113380    0.109015577775431    0.666511966925489  0.0000
  Si     Si        0.811503588633942    0.097098678940150    0.320874544436613  0.0000
  Si     Si        0.410415338323844    0.407354950376440    0.686834789810483  0.0000
  Si     Si        0.622621531522875    0.598706436372250    0.302496425538401  0.0000
  Si     Si        0.418360628757152    0.607789853055820    0.688117661434992  0.0000
  Si     Si        0.919655393551738    0.899964098334307    0.686646119225787  0.0000
  Si     Si        0.129120027573403    0.900533515079584    0.314940542451453  0.0000
  Si     Si        0.907485796729896    0.100609129139112    0.676253958507822  0.0000
  O2     O2        0.483560203401110    0.226655580561584    0.031000002882330  0.0000
  O2     O2        0.540493972296567    0.780231581601046    0.975873520328321  0.0000
  O2     O2        0.043148240440100    0.732944917467521    0.989486666082271  0.0000
  O2     O2        0.981283898764670    0.267640146202400    0.011576779808699  0.0000
  O2     O2        0.316953956731799    0.176297311246694    0.774157985603552  0.0000
  O2     O2        0.686700310399445    0.152145499159724    0.217853522010389  0.0000
  O2     O2        0.715416118274029    0.829773102391824    0.228374806559676  0.0000
  O2     O2        0.337626090839018    0.846159906375782    0.777255544061004  0.0000
  O3     O3        0.853287737438268    0.669769983336081    0.768415439849571  0.0000
  O2     O2        0.214182836569688    0.669208312243559    0.229798032377845  0.0000
  O3     O3        0.172108652739223    0.337678206450713    0.223838425402270  0.0000
  O2     O2        0.808202693531914    0.330302542243850    0.772337881796317  0.0000
  O2     O2        0.385688328682405    0.344469580729258    0.820216172137296  0.0000
  O3     O3        0.683129240238098    0.324762236845708    0.191254654381505  0.0000
  O2     O2        0.666558100681263    0.661492598998774    0.179880636147302  0.0000
  O2     O2        0.360192040757631    0.673445412758067    0.795572738780843  0.0000
  O2     O2        0.867753651866051    0.839003870694923    0.805307914270186  0.0000
  O2     O2        0.189989230561301    0.838325916893958    0.207065329908591  0.0000
  O3     O3        0.176749514256152    0.169626850219001    0.176731995315081  0.0000
  O2     O2        0.851468987721316    0.160418948684684    0.790820316469449  0.0000
  O2     O2        0.228425274310881    0.276443652679434    0.970200342003787  0.0000
  O2     O2        0.720410019664560    0.230242772199024    0.964732583725133  0.0000
  O2     O2        0.794463903256309    0.742288249468193    0.010884479590524  0.0000
  O2     O2        0.301554192411788    0.758041847075058    0.020603471515139  0.0000
  O1     O1        0.455041330268823    0.361279885647346    0.299562179851371  0.0000
  O2     O2        0.555038778618559    0.389762268458732    0.651351011246905  0.0000
  O3     O3        0.572509864557923    0.634312883918801    0.698793717365889  0.0000
  O2     O2        0.473806470768021    0.626208594416434    0.316400334264162  0.0000
  O2     O2        0.973399628962329    0.873505296886057    0.301693602853541  0.0000
  O2     O2        0.078477156664962    0.882366547937453    0.704086095767345  0.0000
  O2     O2        0.062466186605051    0.125610039547444    0.685341252518747  0.0000
  O3     O3        0.950008659286669    0.129106505667930    0.286467175982474  0.0000
  O3     O3        0.302275141906282    0.390849564779772    0.524666889047876  0.0000
  O3     O3        0.726469981034941    0.389932684727859    0.489962446267358  0.0000
  O3     O3        0.723034336505889    0.607580143738653    0.472538257979793  0.0000
  O2     O2        0.325541502958723    0.614089060809908    0.512104193127833  0.0000
  O2     O2        0.833952001357412    0.879199574606142    0.511080497517728  0.0000
  O2     O2        0.216632829961741    0.893240285751645    0.493254405130542  0.0000
  O3     O3        0.213771421821637    0.125311118426554    0.490609063854995  0.0000
  O2     O2        0.817380991802571    0.113705435267243    0.501082876837332  0.0000
  O3     O3        0.283441584720222    0.506125550565362    0.275365013022849  0.0000
  O3     O3        0.762189866288844    0.496997066540069    0.728632476383919  0.0000
  O2     O2        0.787640624763524    0.994165890174604    0.282412407061914  0.0000
  O2     O2        0.258054390796046    0.009231049139314    0.716170003528896  0.0000
  O2     O2        0.408206357918820    0.507686266126553    0.745898163962344  0.0000
  O3     O3        0.618606258475504    0.500275832707091    0.241011063917898  0.0000
  O2     O2        0.897566932563767    0.000279488761596    0.728826504361055  0.0000
  O3     O3        0.136130843737089    0.998244393398290    0.255372440652563  0.0000
