data_c01240.vasp
_audit_creation_method             Generated by GULP
_audit_author_name                 Salvador R. G. Balestra
_symmetry_space_group_name_H-M     'P 1             '
_symmetry_Int_Tables_number        1

loop_
_symmetry_equiv_pos_site_id
_symmetry_equiv_pos_as_xyz
_cell_length_a                       10.2043
_cell_length_b                       15.2865
_cell_length_c                        8.9354
_cell_angle_alpha                   90.3488
_cell_angle_beta                   105.4742
_cell_angle_gamma                   89.5757

loop_
_atom_site_label
_atom_site_type_symbol
_atom_site_fract_x
_atom_site_fract_y
_atom_site_fract_z
_atom_site_charge
  Ge     Ge        0.306699999999978    0.397900000000050    0.331699999999955  0.0000
  Ge     Ge        0.305663730721429    0.607393305715334    0.332409457540361  0.0000
  Ge     Ge        0.408491523068601    0.400157859021729    0.704930234872262  0.0000
  Ge     Ge        0.902800585346148    0.902333284397286    0.695388686460926  0.0000
  Si     Si        0.372181250392052    0.243898124182313    0.910684760868536  0.0000
  Si     Si        0.674290707439048    0.250369661529402    0.111132069210237  0.0000
  Si     Si        0.674174822613880    0.754145378963740    0.113987685500636  0.0000
  Si     Si        0.375823271347532    0.761944083461717    0.905969567091260  0.0000
  Si     Si        0.867992568844447    0.745885379395893    0.897316110179221  0.0000
  Si     Si        0.165293139515592    0.754077409068024    0.105267118815921  0.0000
  Si     Si        0.165537272499776    0.249955882764671    0.110968923173278  0.0000
  Si     Si        0.871601392374947    0.260324738681569    0.893427958268662  0.0000
  Si     Si        0.711023376894510    0.403417272722170    0.681776926205707  0.0000
  Si     Si        0.707339224340857    0.603301162750712    0.678001807076411  0.0000
  Si     Si        0.809139216229866    0.903520998764240    0.331656090721517  0.0000
  Si     Si        0.211114043548840    0.900708127137765    0.680767693346139  0.0000
  Si     Si        0.207382738387479    0.104862817671527    0.680798248615982  0.0000
  Si     Si        0.811234080292087    0.102584116340416    0.330812574002149  0.0000
  Si     Si        0.613321157176116    0.402366063986243    0.317456933004048  0.0000
  Si     Si        0.613125154527318    0.602870349529295    0.317585591894950  0.0000
  Si     Si        0.405861344966868    0.607140804871246    0.697196164950275  0.0000
  Si     Si        0.115483477350172    0.901482623153740    0.325578281768689  0.0000
  Si     Si        0.114912871240563    0.102836901447334    0.325222257569527  0.0000
  Si     Si        0.903736193495414    0.105477302579147    0.691232124586050  0.0000
  O2     O2        0.533177895586432    0.232967404197779    0.984558563160191  0.0000
  O2     O2        0.534434661117879    0.773501107966309    0.986947531482428  0.0000
  O2     O2        0.030210528926462    0.741152645704828    0.966711703141320  0.0000
  O2     O2        0.031572011829285    0.263980119013644    0.971951625053012  0.0000
  O2     O2        0.323552692041288    0.165060860555117    0.787568087720181  0.0000
  O2     O2        0.701343562088063    0.168731964810007    0.228962775243832  0.0000
  O2     O2        0.701270758104847    0.838568892526759    0.225086226310621  0.0000
  O2     O2        0.331003375464847    0.842757304445004    0.788408943104425  0.0000
  O2     O2        0.824055704624316    0.665926663085024    0.776497362585510  0.0000
  O3     O3        0.182137884289932    0.674452933156542    0.222321384218060  0.0000
  O3     O3        0.180879983220525    0.331790203367997    0.223856574260120  0.0000
  O2     O2        0.833300565888431    0.342829231510668    0.778588267318822  0.0000
  O3     O3        0.344690358584137    0.336892586829752    0.826893124896787  0.0000
  O2     O2        0.676077601274592    0.338965214442690    0.210211180214381  0.0000
  O2     O2        0.673571631130894    0.666261275272500    0.211131222224093  0.0000
  O2     O2        0.353081944356978    0.670101795935069    0.813753578755788  0.0000
  O3     O3        0.832556629247236    0.836590548580777    0.807712445798815  0.0000
  O2     O2        0.162780809455396    0.843838240584404    0.200003698088330  0.0000
  O2     O2        0.165938809555686    0.160543540199366    0.204687574352461  0.0000
  O2     O2        0.838363596626698    0.172451386594332    0.790235179398041  0.0000
  O2     O2        0.296724136150313    0.241491649349232    0.045479877349022  0.0000
  O2     O2        0.792016468942110    0.259476399300917    0.024904679322698  0.0000
  O2     O2        0.795436268548195    0.740137504367355    0.034220751039223  0.0000
  O2     O2        0.294110380735273    0.759986367693390    0.035467717186951  0.0000
  O3     O3        0.452170923913335    0.393551178325235    0.267025998940839  0.0000
  O3     O3        0.583600241195440    0.390808099487726    0.750710110061864  0.0000
  O2     O2        0.570370606861923    0.611811467433317    0.733884649869756  0.0000
  O3     O3        0.451980896751976    0.612388494099175    0.270749892906817  0.0000
  O2     O2        0.960045119539517    0.880578778683365    0.318196863540375  0.0000
  O3     O3        0.069699491736946    0.873639750425700    0.711380269698024  0.0000
  O2     O2        0.061433798210640    0.129077081712640    0.707571479613085  0.0000
  O2     O2        0.957915518080501    0.125688149826894    0.307922876663050  0.0000
  O1     O1        0.341398130623534    0.364852011574723    0.519885125859537  0.0000
  O2     O2        0.669559421804496    0.377815764247316    0.499326274561512  0.0000
  O2     O2        0.675417498103812    0.629370303631005    0.497541011308378  0.0000
  O3     O3        0.340013467945345    0.639228012300725    0.524055297278517  0.0000
  O3     O3        0.805252066191813    0.892227460800201    0.506848119451378  0.0000
  O2     O2        0.206490366110425    0.882853088441315    0.500347147596977  0.0000
  O2     O2        0.202910838662732    0.122158197439195    0.501159304917475  0.0000
  O2     O2        0.816893230237556    0.111540015440398    0.511911754445815  0.0000
  O1     O1        0.247017033082523    0.503021331939818    0.315438905149268  0.0000
  O2     O2        0.761461675490210    0.503735076842836    0.701174870205480  0.0000
  O2     O2        0.770578191765214    0.003341198371880    0.276146169349492  0.0000
  O2     O2        0.240440880902650    0.003084766216003    0.721009404350797  0.0000
  O3     O3        0.363683979993129    0.508623187199075    0.719717470079753  0.0000
  O2     O2        0.653456947160129    0.502359115206930    0.290496531220352  0.0000
  O3     O3        0.895237558799648    0.009299132855605    0.754689106449112  0.0000
  O2     O2        0.131669325496229    0.001960184678544    0.282035486220243  0.0000
