data_c01204.vasp
_audit_creation_method             Generated by GULP
_audit_author_name                 Salvador R. G. Balestra
_symmetry_space_group_name_H-M     'P 1             '
_symmetry_Int_Tables_number        1

loop_
_symmetry_equiv_pos_site_id
_symmetry_equiv_pos_as_xyz
_cell_length_a                       10.2797
_cell_length_b                       15.3314
_cell_length_c                        8.8872
_cell_angle_alpha                   90.5184
_cell_angle_beta                   105.6214
_cell_angle_gamma                   89.3858

loop_
_atom_site_label
_atom_site_type_symbol
_atom_site_fract_x
_atom_site_fract_y
_atom_site_fract_z
_atom_site_charge
  Ge     Ge        0.306699999999978    0.397900000000050    0.331699999999955  0.0000
  Ge     Ge        0.722397315575817    0.597930423325088    0.689525825495801  0.0000
  Ge     Ge        0.406541067577536    0.401032513791522    0.709658528946011  0.0000
  Ge     Ge        0.622558835410651    0.594796770707272    0.311570701520704  0.0000
  Si     Si        0.363845601469211    0.244941564745961    0.913932179268411  0.0000
  Si     Si        0.664889047486739    0.236706760264571    0.115259750728601  0.0000
  Si     Si        0.665260450904712    0.750886789604289    0.107297603222470  0.0000
  Si     Si        0.364216647590319    0.759123241720385    0.905966047394570  0.0000
  Si     Si        0.873186302094696    0.744555621252830    0.906928385422137  0.0000
  Si     Si        0.167217208622120    0.747859693125097    0.123680611149021  0.0000
  Si     Si        0.155921319836769    0.251271162876871    0.114299801956216  0.0000
  Si     Si        0.861890314537536    0.247970144969742    0.897549588499633  0.0000
  Si     Si        0.706242187977789    0.395491312138205    0.687591739248689  0.0000
  Si     Si        0.322858902578404    0.600336194653893    0.333633879217154  0.0000
  Si     Si        0.824498705112778    0.891501795415456    0.337688898186260  0.0000
  Si     Si        0.219898954297880    0.904145218880748    0.687981502008647  0.0000
  Si     Si        0.204601183568437    0.104327702000164    0.683539705065683  0.0000
  Si     Si        0.809201721014771    0.091684482214368    0.333246535412012  0.0000
  Si     Si        0.608912526910440    0.392284049210743    0.318742201263643  0.0000
  Si     Si        0.420189348391701    0.603543739023847    0.702489321189085  0.0000
  Si     Si        0.919013826935028    0.895919721431578    0.697048588786479  0.0000
  Si     Si        0.125995577244019    0.900137843739878    0.328147855871650  0.0000
  Si     Si        0.110086898647894    0.099909732106284    0.324180887729570  0.0000
  Si     Si        0.903103567437727    0.095691181658667    0.693080623459998  0.0000
  O2     O2        0.521167121320003    0.225503632864738    0.991816475298155  0.0000
  O2     O2        0.507942526938051    0.770325144856898    0.029399353451219  0.0000
  O2     O2        0.010659318122244    0.732216879052355    0.041092608007783  0.0000
  O2     O2        0.018452909096934    0.263607080187112    0.980125693204151  0.0000
  O2     O2        0.313566993933036    0.170161743038628    0.783436250581656  0.0000
  O2     O2        0.693428666717887    0.151033061848006    0.223725779943121  0.0000
  O2     O2        0.715531984660901    0.825667236555180    0.237794604967282  0.0000
  O2     O2        0.335672971982539    0.844797637613886    0.797502608775077  0.0000
  O3     O3        0.852813899045558    0.661758468473486    0.794265683686857  0.0000
  O2     O2        0.212413773058580    0.671621216975405    0.249582781427743  0.0000
  O3     O3        0.176287488777928    0.334068881622172    0.226961424757772  0.0000
  O2     O2        0.816693878000963    0.324212527070299    0.771655691094727  0.0000
  O3     O3        0.344486710575607    0.338650313042749    0.834018085703903  0.0000
  O2     O2        0.672669060880147    0.320869798153170    0.225844350879585  0.0000
  O3     O3        0.684612999851088    0.657178153404905    0.187210462393556  0.0000
  O2     O2        0.356427025897776    0.674961466070975    0.795375148081299  0.0000
  O2     O2        0.870159865004561    0.833736382298533    0.812549353660130  0.0000
  O2     O2        0.187435647276713    0.840360515618981    0.214979279991393  0.0000
  O2     O2        0.158942721664396    0.162091037178396    0.208678549598313  0.0000
  O2     O2        0.841662341972536    0.155470539053963    0.806246035403990  0.0000
  O2     O2        0.283276016542906    0.243064997903064    0.043721133074749  0.0000
  O2     O2        0.778375213945236    0.247989272450878    0.024659102942795  0.0000
  O2     O2        0.745840508038022    0.752763119760597    0.977520510666743  0.0000
  O2     O2        0.250741119331029    0.747840967948191    0.996580554787710  0.0000
  O3     O3        0.447353589323439    0.389089308811088    0.260684773066573  0.0000
  O3     O3        0.580841061599148    0.393626491534952    0.761849299459583  0.0000
  O3     O3        0.581748493929696    0.606742942026590    0.760549321355481  0.0000
  O3     O3        0.448258178617396    0.602200577148847    0.259373092874733  0.0000
  O2     O2        0.970060937748812    0.874938580679448    0.306555137061175  0.0000
  O2     O2        0.077349885540331    0.879880632315170    0.718101982856568  0.0000
  O2     O2        0.059038657531163    0.120889470804884    0.714673229400371  0.0000
  O2     O2        0.951751229271556    0.115949768209618    0.303127802932618  0.0000
  O1     O1        0.338592645080112    0.367279152847748    0.522283189275722  0.0000
  O2     O2        0.648805311408746    0.372984820895770    0.503844536877362  0.0000
  O1     O1        0.690501922164575    0.628555752644267    0.498944802271177  0.0000
  O2     O2        0.380301328277674    0.622833257549456    0.517383737163460  0.0000
  O2     O2        0.835585680809964    0.875305068106348    0.519555026742772  0.0000
  O2     O2        0.211828634319511    0.885779700192409    0.506804532654863  0.0000
  O2     O2        0.193515113661603    0.120525582851242    0.501674084312295  0.0000
  O2     O2        0.817270971574353    0.110048724420404    0.514423484812214  0.0000
  O3     O3        0.255556123698481    0.506191632020244    0.315394250205357  0.0000
  O3     O3        0.773537561509217    0.489638452358929    0.705820362966834  0.0000
  O2     O2        0.775493963097015    0.990454171641367    0.292469144618803  0.0000
  O2     O2        0.253607206331959    0.005375491261539    0.728757570193042  0.0000
  O3     O3        0.365704787261629    0.509586528980382    0.731140142005022  0.0000
  O3     O3        0.663401637639908    0.486241934952002    0.290102971089295  0.0000
  O2     O2        0.892550766320090    0.995539486418966    0.740740507235167  0.0000
  O2     O2        0.136547943119735    0.000289710702945    0.280489905830401  0.0000
