data_c01265.vasp
_audit_creation_method             Generated by GULP
_audit_author_name                 Salvador R. G. Balestra
_symmetry_space_group_name_H-M     'P 1             '
_symmetry_Int_Tables_number        1

loop_
_symmetry_equiv_pos_site_id
_symmetry_equiv_pos_as_xyz
_cell_length_a                       10.2361
_cell_length_b                       15.2498
_cell_length_c                        8.9388
_cell_angle_alpha                   90.4186
_cell_angle_beta                   105.4746
_cell_angle_gamma                   90.1818

loop_
_atom_site_label
_atom_site_type_symbol
_atom_site_fract_x
_atom_site_fract_y
_atom_site_fract_z
_atom_site_charge
  Ge     Ge        0.306699999999978    0.397900000000050    0.331699999999955  0.0000
  Ge     Ge        0.808552602266386    0.895508283545159    0.328760830562964  0.0000
  Ge     Ge        0.615968880180489    0.599618753018391    0.307788469854998  0.0000
  Ge     Ge        0.409111362368513    0.608999337111434    0.689888596642275  0.0000
  Si     Si        0.367673104858465    0.248483790853468    0.899261054245520  0.0000
  Si     Si        0.665260596470541    0.244186041750746    0.104636831651629  0.0000
  Si     Si        0.668485355310737    0.751460701586505    0.094380347910450  0.0000
  Si     Si        0.369253105081584    0.765600307476136    0.894179127255084  0.0000
  Si     Si        0.880067107674666    0.749435836292855    0.897040883294091  0.0000
  Si     Si        0.175969926612703    0.751405059649605    0.109850666875907  0.0000
  Si     Si        0.158646863156267    0.252591804799772    0.101861805726103  0.0000
  Si     Si        0.862796891839417    0.259499933795805    0.887815329597307  0.0000
  Si     Si        0.705687347896108    0.405526195847857    0.674322158226772  0.0000
  Si     Si        0.712417495514819    0.608569643938177    0.674479128397582  0.0000
  Si     Si        0.310710748083908    0.601777479271198    0.321269312560146  0.0000
  Si     Si        0.209830870775116    0.908445047773941    0.675282046674123  0.0000
  Si     Si        0.202413641680133    0.110234710241037    0.666204824998899  0.0000
  Si     Si        0.806878463877796    0.099069190815718    0.320797397834305  0.0000
  Si     Si        0.405244212180577    0.403926289766922    0.696459690294538  0.0000
  Si     Si        0.615053743114323    0.396472346872777    0.316336245894912  0.0000
  Si     Si        0.907310866010927    0.905590407061762    0.692175912746058  0.0000
  Si     Si        0.116692634434258    0.899186564109978    0.320781592648977  0.0000
  Si     Si        0.107837036337939    0.102397465151078    0.310093295222986  0.0000
  Si     Si        0.901433227618254    0.105321902766945    0.680904820382009  0.0000
  O2     O2        0.521906529230110    0.225798662226201    0.983499646673198  0.0000
  O2     O2        0.531326580514806    0.769405110099910    0.961481614799975  0.0000
  O2     O2        0.037289212208035    0.734488923992516    0.979294297059142  0.0000
  O2     O2        0.020836309976262    0.269638680025033    0.971353169391155  0.0000
  O2     O2        0.315076779371462    0.174208975411159    0.768786050654741  0.0000
  O2     O2        0.693721245018257    0.163446881434428    0.222938389459473  0.0000
  O3     O3        0.685885074002282    0.824833899399778    0.227576362042359  0.0000
  O2     O2        0.324579631481834    0.850696757942836    0.787578333978695  0.0000
  O2     O2        0.833328449016624    0.669047585571428    0.776786369666840  0.0000
  O2     O2        0.199172490655849    0.668025000704889    0.222006982445094  0.0000
  O3     O3        0.181434338919556    0.329970322533667    0.226810630337095  0.0000
  O2     O2        0.819636097276196    0.344922231614289    0.782186599331121  0.0000
  O2     O2        0.358695054022087    0.343153842370941    0.819131165511801  0.0000
  O2     O2        0.669665155082274    0.332185018385762    0.204596497045905  0.0000
  O3     O3        0.669921095330549    0.657543238400391    0.172271119260800  0.0000
  O3     O3        0.332534859046872    0.677911450862176    0.792572329035906  0.0000
  O2     O2        0.859997774857526    0.842502485387821    0.810242790311502  0.0000
  O2     O2        0.176999797817946    0.840487738561590    0.206680540391682  0.0000
  O2     O2        0.159220506668668    0.159671180497704    0.187546755709576  0.0000
  O2     O2        0.837645446487168    0.171819236445742    0.781445764759815  0.0000
  O2     O2        0.282933582724733    0.250999196913628    0.025054833950684  0.0000
  O2     O2        0.779766805922360    0.251484744708880    0.014291657401389  0.0000
  O2     O2        0.796645537434700    0.756164200407917    0.023925148214551  0.0000
  O2     O2        0.299583048864071    0.763364621827137    0.033730181235047  0.0000
  O3     O3        0.452976144615126    0.391012729163038    0.272299612530445  0.0000
  O2     O2        0.568643890230602    0.401047923876541    0.729326144778106  0.0000
  O3     O3        0.583561602660729    0.620243173947554    0.742077211145818  0.0000
  O3     O3        0.442007739395906    0.601584697239363    0.255583699897265  0.0000
  O3     O3        0.965377781816271    0.867934810816404    0.306881936362070  0.0000
  O2     O2        0.062737074528749    0.884430615856028    0.696359873002448  0.0000
  O2     O2        0.056981171915699    0.132001574001074    0.694861216129161  0.0000
  O2     O2        0.952159026390320    0.125308381651697    0.295504954060795  0.0000
  O3     O3        0.336659816631862    0.370063541463797    0.524187640086868  0.0000
  O2     O2        0.675035854529231    0.371027454268408    0.497533948125348  0.0000
  O3     O3        0.680329063280276    0.637171747514688    0.496105050316903  0.0000
  O3     O3        0.354424208237814    0.635155501751825    0.497446245961028  0.0000
  O3     O3        0.812153478318973    0.889031933545920    0.522114532952283  0.0000
  O2     O2        0.208506352785724    0.888686899702677    0.497420797365895  0.0000
  O2     O2        0.196509685835097    0.123477439121918    0.485407415549237  0.0000
  O2     O2        0.813944460034260    0.108224359557825    0.502778334575435  0.0000
  O3     O3        0.249384426570598    0.504716698655517    0.311862060943458  0.0000
  O2     O2        0.757355144804506    0.506168316580846    0.685780808886505  0.0000
  O3     O3        0.768388020566015    0.000881884398106    0.265259131696345  0.0000
  O2     O2        0.243513525554119    0.010504910930396    0.715119529465908  0.0000
  O3     O3        0.363193497645775    0.502913881724081    0.719579256090921  0.0000
  O3     O3        0.665949154896219    0.492927613407312    0.292994209068868  0.0000
  O2     O2        0.895360042388441    0.006717521063166    0.743914759402538  0.0000
  O2     O2        0.120200155747208    0.000316872968965    0.269901195924266  0.0000
