data_c01202.vasp
_audit_creation_method             Generated by GULP
_audit_author_name                 Salvador R. G. Balestra
_symmetry_space_group_name_H-M     'P 1             '
_symmetry_Int_Tables_number        1

loop_
_symmetry_equiv_pos_site_id
_symmetry_equiv_pos_as_xyz
_cell_length_a                       10.2915
_cell_length_b                       15.2053
_cell_length_c                        8.9431
_cell_angle_alpha                   89.5295
_cell_angle_beta                   105.2263
_cell_angle_gamma                   90.0945

loop_
_atom_site_label
_atom_site_type_symbol
_atom_site_fract_x
_atom_site_fract_y
_atom_site_fract_z
_atom_site_charge
  Ge     Ge        0.306699999999978    0.397900000000050    0.331699999999955  0.0000
  Ge     Ge        0.729313474208434    0.584800035820689    0.684519462107933  0.0000
  Ge     Ge        0.228864361722546    0.892493582923882    0.674711636756605  0.0000
  Ge     Ge        0.909037486568190    0.086555053576101    0.696372727385584  0.0000
  Si     Si        0.367076466828063    0.240990257101823    0.904803030944282  0.0000
  Si     Si        0.662987826080675    0.233470183458762    0.113407017719585  0.0000
  Si     Si        0.678396961531899    0.741269194052218    0.113386204767823  0.0000
  Si     Si        0.383234883023704    0.750560390330716    0.902752013457218  0.0000
  Si     Si        0.883857471407830    0.727631882529440    0.905463235470424  0.0000
  Si     Si        0.178479943477680    0.747213098038984    0.112348856861324  0.0000
  Si     Si        0.156250673421291    0.253718222421364    0.106223623553345  0.0000
  Si     Si        0.860948708744590    0.239336234084981    0.898952023250926  0.0000
  Si     Si        0.705490728635846    0.381086026090277    0.673152437015170  0.0000
  Si     Si        0.332248182716206    0.603256728485001    0.342951395837340  0.0000
  Si     Si        0.832037412945194    0.887057430912056    0.335242735980747  0.0000
  Si     Si        0.210263437657387    0.100171924591031    0.679560433414783  0.0000
  Si     Si        0.811727803775818    0.088233111654552    0.334805578789644  0.0000
  Si     Si        0.408045225546183    0.393188590036689    0.694222178634309  0.0000
  Si     Si        0.610713294072188    0.387511484703851    0.315581808125344  0.0000
  Si     Si        0.631323870819064    0.588213865709758    0.321573150971964  0.0000
  Si     Si        0.425992568512613    0.596571746914824    0.699352236055340  0.0000
  Si     Si        0.927497920739376    0.879759232977416    0.692037792691466  0.0000
  Si     Si        0.130404199567194    0.899460834373958    0.313189285852602  0.0000
  Si     Si        0.113119704061662    0.099952103811230    0.322514319785558  0.0000
  O2     O2        0.518153898550666    0.217285513688116    0.997942420761830  0.0000
  O2     O2        0.526630232436928    0.763693078577703    0.022847417268614  0.0000
  O2     O2        0.028252489087798    0.718766433392281    0.026013019029093  0.0000
  O2     O2        0.015457166452504    0.262476901029040    0.978857472536808  0.0000
  O2     O2        0.322650463102408    0.165879908833774    0.776597709504207  0.0000
  O2     O2        0.697309320445761    0.148594860948983    0.225500573434883  0.0000
  O2     O2        0.726815142417912    0.819854587686677    0.233535695085520  0.0000
  O3     O3        0.359892605140284    0.829406208909147    0.779731770575610  0.0000
  O3     O3        0.860803642780041    0.643952796663046    0.795511788342414  0.0000
  O2     O2        0.233118132074878    0.676844560378230    0.248222777098787  0.0000
  O3     O3        0.178506640898836    0.337324465691177    0.216701250806488  0.0000
  O2     O2        0.810654395127446    0.307807933092136    0.757950922943436  0.0000
  O2     O2        0.358560634095071    0.335819548492473    0.820285554936279  0.0000
  O2     O2        0.668894619496222    0.322390390657982    0.209894063974694  0.0000
  O2     O2        0.685786244863277    0.648784497281396    0.203836142210600  0.0000
  O2     O2        0.371161872536306    0.657129617081138    0.815677943610676  0.0000
  O2     O2        0.868089087131464    0.815043781730732    0.799727536542237  0.0000
  O2     O2        0.178839109469581    0.843496638462527    0.186409871398278  0.0000
  O2     O2        0.161925059237128    0.166107191729712    0.209780000220623  0.0000
  O3     O3        0.846461924460107    0.142801133595272    0.827792884797628  0.0000
  O2     O2        0.275296709835886    0.245562415664216    0.022772193781037  0.0000
  O2     O2        0.774703778018090    0.247065821231683    0.021637072317478  0.0000
  O2     O2        0.768705387889986    0.731787321643426    0.995170464175395  0.0000
  O2     O2        0.267249623621082    0.752831572696700    0.991592252093452  0.0000
  O3     O3        0.457209318957288    0.363584405987194    0.301768107452706  0.0000
  O2     O2        0.556620531147256    0.360862431967812    0.691769361288786  0.0000
  O3     O3        0.578914540802657    0.621838759749562    0.711475163217828  0.0000
  O2     O2        0.482265285395924    0.618725610170185    0.325245417088575  0.0000
  O2     O2        0.980459231669300    0.869109795092768    0.315398102786884  0.0000
  O3     O3        0.079047899489655    0.852580361939929    0.699580988707689  0.0000
  O3     O3        0.067280165248580    0.126592394086875    0.704140328255345  0.0000
  O2     O2        0.958486389677999    0.118415832864800    0.319796215505104  0.0000
  O3     O3        0.309447808849358    0.383438097441620    0.524630109625146  0.0000
  O2     O2        0.700214188239071    0.378384631637301    0.491906005685849  0.0000
  O3     O3        0.728703419918618    0.595259948189385    0.491853448104755  0.0000
  O2     O2        0.335367869279839    0.611649624915183    0.523782133812978  0.0000
  O2     O2        0.835202819119963    0.873854869646286    0.514994965302912  0.0000
  O3     O3        0.228713660133393    0.886217007675964    0.481912019960482  0.0000
  O2     O2        0.205410703440183    0.109997577027987    0.497305020491847  0.0000
  O3     O3        0.806527342190800    0.097771567000352    0.510555312591180  0.0000
  O3     O3        0.280160399913751    0.507682903776240    0.283541742180013  0.0000
  O3     O3        0.753112120951756    0.475924565713865    0.739729975591235  0.0000
  O2     O2        0.785798967144566    0.986542492075937    0.283066759943406  0.0000
  O3     O3        0.247314898462896    0.000688838848701    0.732574377992899  0.0000
  O2     O2        0.414476031906327    0.494866821039704    0.746757596460028  0.0000
  O2     O2        0.623524260401788    0.487970652833990    0.260310381578808  0.0000
  O3     O3        0.921747856878474    0.977832106968040    0.751739749275971  0.0000
  O2     O2        0.128577831380541    0.001761965192256    0.262800463069897  0.0000
