data_c01281.vasp
_audit_creation_method             Generated by GULP
_audit_author_name                 Salvador R. G. Balestra
_symmetry_space_group_name_H-M     'P 1             '
_symmetry_Int_Tables_number        1

loop_
_symmetry_equiv_pos_site_id
_symmetry_equiv_pos_as_xyz
_cell_length_a                       10.2545
_cell_length_b                       15.2273
_cell_length_c                        8.9602
_cell_angle_alpha                   89.6259
_cell_angle_beta                   105.4363
_cell_angle_gamma                   89.7778

loop_
_atom_site_label
_atom_site_type_symbol
_atom_site_fract_x
_atom_site_fract_y
_atom_site_fract_z
_atom_site_charge
  Ge     Ge        0.306699999999978    0.397900000000050    0.331699999999955  0.0000
  Ge     Ge        0.221342918286501    0.895435907552048    0.678706597829231  0.0000
  Ge     Ge        0.622680736818632    0.597149275322848    0.318122683905508  0.0000
  Ge     Ge        0.413620389820334    0.597841150618761    0.697892178235802  0.0000
  Si     Si        0.350930382540669    0.243598083076872    0.905269833034496  0.0000
  Si     Si        0.646427002274607    0.235400997668221    0.110285226112740  0.0000
  Si     Si        0.664199116924014    0.753219570965299    0.111997257575918  0.0000
  Si     Si        0.364094184348227    0.750832105225322    0.910013672339026  0.0000
  Si     Si        0.859435799579054    0.739679198673620    0.897717950443402  0.0000
  Si     Si        0.154521045456126    0.747970872406361    0.109296785879986  0.0000
  Si     Si        0.141151212396549    0.256373716411038    0.107751145093302  0.0000
  Si     Si        0.844207062441480    0.244162398472532    0.894306611665088  0.0000
  Si     Si        0.705246477121923    0.392630341616817    0.671332020153178  0.0000
  Si     Si        0.717996197464074    0.592553042783448    0.687337075347473  0.0000
  Si     Si        0.318661154175710    0.605754381409332    0.334975391106456  0.0000
  Si     Si        0.820266616454145    0.896028148379884    0.334066915437230  0.0000
  Si     Si        0.208144408521634    0.100300669723821    0.680540798206440  0.0000
  Si     Si        0.813337755858585    0.097633165283899    0.336156934543292  0.0000
  Si     Si        0.403397949122513    0.392903067483902    0.690452646811707  0.0000
  Si     Si        0.612515306109073    0.393031726969413    0.310497953271775  0.0000
  Si     Si        0.912630242206677    0.890903698231977    0.687917819184645  0.0000
  Si     Si        0.121063255292519    0.901258796589311    0.316651050967677  0.0000
  Si     Si        0.112325753633832    0.102505282079835    0.321081034212185  0.0000
  Si     Si        0.907115030664737    0.093861088428040    0.692504127856000  0.0000
  O2     O2        0.489747279054637    0.218144313408232    0.029311661009642  0.0000
  O2     O2        0.503773560428997    0.762307603741531    0.040651323469353  0.0000
  O2     O2        0.000055084901708    0.726167234754312    0.025189721492307  0.0000
  O2     O2        0.985613810513835    0.264058401746663    0.014604508301596  0.0000
  O2     O2        0.316442310085179    0.168292593377662    0.776361929567802  0.0000
  O2     O2        0.694283495610946    0.156548422021368    0.232369844194158  0.0000
  O2     O2        0.708871536926048    0.835474873203914    0.225024869486219  0.0000
  O3     O3        0.347221605245155    0.827593266843937    0.782858598909471  0.0000
  O2     O2        0.836072499600892    0.653970212675052    0.789136205014516  0.0000
  O2     O2        0.205074890322270    0.670386039530331    0.232595056742879  0.0000
  O3     O3        0.175730672179235    0.340204774694550    0.215839816640869  0.0000
  O2     O2        0.812156883516993    0.323402333242582    0.770180865504039  0.0000
  O2     O2        0.363685572014448    0.335418026995287    0.821785823882950  0.0000
  O2     O2        0.668595457895937    0.326570416738928    0.203209867197196  0.0000
  O3     O3        0.696423369526476    0.664110533069510    0.210182228143395  0.0000
  O3     O3        0.355540290391663    0.657502917786658    0.828080364614701  0.0000
  O2     O2        0.854937896826242    0.828069347031015    0.798193556919613  0.0000
  O2     O2        0.167663385780486    0.841838212462908    0.193426755471025  0.0000
  O2     O2        0.169305570626678    0.168128208563371    0.213468333760703  0.0000
  O2     O2        0.847901971383262    0.152331492302257    0.807302699698245  0.0000
  O2     O2        0.233719603504469    0.253136308841759    0.990276539642467  0.0000
  O2     O2        0.727779207659039    0.236858654997919    0.981324510876617  0.0000
  O2     O2        0.738220696453620    0.751964807065212    0.976836279011818  0.0000
  O2     O2        0.239021078126509    0.757187262305341    0.984660695183018  0.0000
  O3     O3        0.450791054932520    0.386684633093607    0.269119892134762  0.0000
  O2     O2        0.566012632505594    0.391417110397047    0.720888667799476  0.0000
  O3     O3        0.587515794471804    0.602256772791397    0.751695145360907  0.0000
  O3     O3        0.449148616709067    0.608426362140573    0.268467131733105  0.0000
  O2     O2        0.968490810088516    0.874718143442563    0.315049640174434  0.0000
  O3     O3        0.066445827374938    0.865648108782498    0.703009229163554  0.0000
  O2     O2        0.062027672236108    0.119846567338441    0.709359468073167  0.0000
  O2     O2        0.955566086148433    0.125560069571847    0.305599642987474  0.0000
  O3     O3        0.334349914915055    0.359029595529882    0.519485488804557  0.0000
  O2     O2        0.675285588862243    0.368287396242456    0.491293459505255  0.0000
  O3     O3        0.684554131642013    0.622645160077142    0.510264040097987  0.0000
  O3     O3        0.355925350627616    0.637819591979488    0.511406332993168  0.0000
  O2     O2        0.822172630605011    0.878321165719736    0.512010220113338  0.0000
  O3     O3        0.217932134398001    0.886140726714213    0.485746542822957  0.0000
  O2     O2        0.198564535635114    0.111977723850035    0.498636889361137  0.0000
  O2     O2        0.819601081555943    0.110392821408788    0.516332041600851  0.0000
  O3     O3        0.262903564799930    0.507306939365842    0.328275500378504  0.0000
  O2     O2        0.767300272325542    0.490529654013599    0.699441306596408  0.0000
  O2     O2        0.781042435253363    0.996837069001847    0.288782894205620  0.0000
  O3     O3        0.255616543847530    0.002858534175726    0.734376772052634  0.0000
  O3     O3        0.357518755712183    0.492049830166787    0.706294344118764  0.0000
  O3     O3        0.658837200979186    0.490030388741168    0.281083256963102  0.0000
  O2     O2        0.900528497592094    0.991790213154208    0.738453546383717  0.0000
  O2     O2        0.126051327037528    0.003136217914929    0.266020211037562  0.0000
