data_c01215.vasp
_audit_creation_method             Generated by GULP
_audit_author_name                 Salvador R. G. Balestra
_symmetry_space_group_name_H-M     'P 1             '
_symmetry_Int_Tables_number        1

loop_
_symmetry_equiv_pos_site_id
_symmetry_equiv_pos_as_xyz
_cell_length_a                       10.2625
_cell_length_b                       15.2189
_cell_length_c                        8.9680
_cell_angle_alpha                   89.9051
_cell_angle_beta                   105.3373
_cell_angle_gamma                   90.0966

loop_
_atom_site_label
_atom_site_type_symbol
_atom_site_fract_x
_atom_site_fract_y
_atom_site_fract_z
_atom_site_charge
  Ge     Ge        0.306699999999978    0.397900000000050    0.331699999999955  0.0000
  Ge     Ge        0.720741465246259    0.596190753034785    0.674300518356473  0.0000
  Ge     Ge        0.911766153627975    0.891338612362888    0.686460726458176  0.0000
  Ge     Ge        0.125608421489889    0.899600199386965    0.315483903210015  0.0000
  Si     Si        0.353292480592678    0.244725272778027    0.901128430446923  0.0000
  Si     Si        0.648915706058393    0.235865809217127    0.108768421851568  0.0000
  Si     Si        0.657453535952798    0.747125073477935    0.102393760867629  0.0000
  Si     Si        0.360649199846226    0.753011192117727    0.894940087530451  0.0000
  Si     Si        0.867650302807454    0.738010813676672    0.904405884620086  0.0000
  Si     Si        0.164082545141566    0.744116478541201    0.109532224391268  0.0000
  Si     Si        0.143529885037318    0.257916011075679    0.104534022225373  0.0000
  Si     Si        0.846025499412838    0.246408845340915    0.890945048096099  0.0000
  Si     Si        0.706200636161479    0.392281577123427    0.668856932055137  0.0000
  Si     Si        0.321528673890272    0.602341124943811    0.335448886834397  0.0000
  Si     Si        0.817294381955172    0.890146467100992    0.328715895417510  0.0000
  Si     Si        0.219989763425684    0.898849296880706    0.673945592372704  0.0000
  Si     Si        0.204024889886883    0.101901767972443    0.674505381499775  0.0000
  Si     Si        0.812659962108350    0.094766291177531    0.328997125969164  0.0000
  Si     Si        0.406865684200376    0.397773868216922    0.692810525926130  0.0000
  Si     Si        0.610716209063591    0.391585039612226    0.312331574752592  0.0000
  Si     Si        0.620308580511261    0.593885543248025    0.313197437800394  0.0000
  Si     Si        0.415798830086747    0.600085558537881    0.691306825389805  0.0000
  Si     Si        0.112039983272845    0.104208559958305    0.315845651527685  0.0000
  Si     Si        0.904510902724558    0.097091800562099    0.686317283925921  0.0000
  O2     O2        0.493445440665417    0.219634800001967    0.021104543979166  0.0000
  O2     O2        0.502971424144776    0.767570673207472    0.017616903119452  0.0000
  O2     O2        0.006746718103760    0.724339730529452    0.034629380697532  0.0000
  O2     O2        0.990098163047682    0.264773412442443    0.006437694336880  0.0000
  O2     O2        0.315947261461749    0.167176130045314    0.774749422003636  0.0000
  O2     O2        0.694259785190616    0.154342304752023    0.225525315695214  0.0000
  O2     O2        0.707806125816975    0.829247949876149    0.214432785303289  0.0000
  O2     O2        0.333917279551162    0.838875933308484    0.786016066207246  0.0000
  O3     O3        0.848618028099959    0.662620376259706    0.776302809324723  0.0000
  O2     O2        0.215058147611497    0.672804867867658    0.243836020413198  0.0000
  O3     O3        0.174890165437692    0.340148912763087    0.217358339292723  0.0000
  O2     O2        0.813840481918602    0.324359511341275    0.766480558480222  0.0000
  O2     O2        0.363157149161182    0.337416967681492    0.817902197818276  0.0000
  O2     O2        0.669187192397384    0.327318745358405    0.203359576121995  0.0000
  O2     O2        0.670965032116228    0.655515220270214    0.195039737396949  0.0000
  O2     O2        0.356246803195996    0.664134744392296    0.797871629665554  0.0000
  O3     O3        0.863401479111021    0.831906794119504    0.823899356594511  0.0000
  O3     O3        0.183919256124544    0.839531908755972    0.185536056162842  0.0000
  O2     O2        0.169844446720512    0.170785996658559    0.210976755948163  0.0000
  O2     O2        0.842986296164935    0.156182301546265    0.798082785167586  0.0000
  O2     O2        0.240039022091660    0.255686059765326    0.991315650058060  0.0000
  O2     O2        0.734149192348361    0.240586297102998    0.984264964969015  0.0000
  O2     O2        0.742400635160596    0.733519040634417    0.979161785620334  0.0000
  O2     O2        0.243136654928057    0.739815677721223    0.979153644141107  0.0000
  O3     O3        0.458203803253058    0.364114600251763    0.302159883110588  0.0000
  O2     O2        0.556693126093847    0.371507324131805    0.685055375049985  0.0000
  O3     O3        0.567964783489618    0.627678846894422    0.702330079143671  0.0000
  O2     O2        0.470485515685280    0.623304396998717    0.317168246353805  0.0000
  O3     O3        0.965285521397631    0.865942710629138    0.315173912163087  0.0000
  O3     O3        0.074260575960531    0.866125520220069    0.684282981376833  0.0000
  O2     O2        0.058937809597885    0.125765207273887    0.700439647484597  0.0000
  O2     O2        0.954895197129513    0.125294271007673    0.301692972930953  0.0000
  O3     O3        0.307762523620526    0.385842364996102    0.523794306206333  0.0000
  O2     O2        0.702669984791938    0.384301441993806    0.488345422985671  0.0000
  O3     O3        0.718999497160908    0.604938557052384    0.481890130370054  0.0000
  O2     O2        0.324650608206190    0.608801206743030    0.515649305635680  0.0000
  O3     O3        0.808716696139805    0.874425209109683    0.502476780230717  0.0000
  O3     O3        0.230206793876732    0.889508550738360    0.500057618045713  0.0000
  O2     O2        0.198746759684420    0.113335955402792    0.494248608898799  0.0000
  O2     O2        0.816384537501173    0.106621194748723    0.508665148880447  0.0000
  O3     O3        0.277498656345243    0.505982807422710    0.275500613500638  0.0000
  O3     O3        0.752215126514431    0.488472950753633    0.730344549007129  0.0000
  O2     O2        0.786794492863161    0.992680417988285    0.283116556051766  0.0000
  O2     O2        0.241025925679728    0.001268852360335    0.725286517058479  0.0000
  O2     O2        0.407530424208643    0.499422625021895    0.746630911826140  0.0000
  O2     O2        0.617032402086599    0.492512038513323    0.256881134227214  0.0000
  O3     O3        0.900213060708605    0.998450276782903    0.741493685498615  0.0000
  O3     O3        0.125378740540504    0.007223752930709    0.256502845967255  0.0000
