data_c01282.vasp
_audit_creation_method             Generated by GULP
_audit_author_name                 Salvador R. G. Balestra
_symmetry_space_group_name_H-M     'P 1             '
_symmetry_Int_Tables_number        1

loop_
_symmetry_equiv_pos_site_id
_symmetry_equiv_pos_as_xyz
_cell_length_a                       10.2039
_cell_length_b                       15.2520
_cell_length_c                        8.9456
_cell_angle_alpha                   90.3063
_cell_angle_beta                   105.2866
_cell_angle_gamma                   89.6556

loop_
_atom_site_label
_atom_site_type_symbol
_atom_site_fract_x
_atom_site_fract_y
_atom_site_fract_z
_atom_site_charge
  Ge     Ge        0.306699999999978    0.397900000000050    0.331699999999955  0.0000
  Ge     Ge        0.221442855405122    0.901326900731595    0.676863492843906  0.0000
  Ge     Ge        0.624026627916103    0.596787339840052    0.312427278063317  0.0000
  Ge     Ge        0.112095657441627    0.103283562918995    0.307910590834042  0.0000
  Si     Si        0.346426905886387    0.252804439606104    0.899262088150012  0.0000
  Si     Si        0.641000400374149    0.235080598134057    0.105654651321087  0.0000
  Si     Si        0.662228060121437    0.752768586437517    0.108682066678017  0.0000
  Si     Si        0.365125112668320    0.753985389935846    0.901172855677367  0.0000
  Si     Si        0.857718599532619    0.743316149604514    0.892902997573720  0.0000
  Si     Si        0.155579310396492    0.744178502974058    0.103376846011341  0.0000
  Si     Si        0.137968700525004    0.261130926399356    0.100978913941371  0.0000
  Si     Si        0.839614334582917    0.246754974809314    0.890026107447244  0.0000
  Si     Si        0.707320293062715    0.395747331767567    0.667898414660016  0.0000
  Si     Si        0.720528818915680    0.595010770519357    0.674471582973593  0.0000
  Si     Si        0.319677304751597    0.605998342851099    0.329607097888096  0.0000
  Si     Si        0.822289021349011    0.894877702055839    0.331525293221963  0.0000
  Si     Si        0.207986798205527    0.105264422366859    0.672790586728493  0.0000
  Si     Si        0.807566660411453    0.097656209609096    0.326876176920487  0.0000
  Si     Si        0.405429136408262    0.401645080278360    0.690618614010426  0.0000
  Si     Si        0.610973277800255    0.390866671676571    0.310750300552929  0.0000
  Si     Si        0.415138200909062    0.602656526990735    0.685557696009613  0.0000
  Si     Si        0.912547644036951    0.894547205920745    0.686151688682144  0.0000
  Si     Si        0.122926131907009    0.898989406498326    0.311105209745436  0.0000
  Si     Si        0.902321428987181    0.096690400330049    0.682056380914917  0.0000
  O2     O2        0.481664081557764    0.224221707056816    0.026567792847784  0.0000
  O2     O2        0.501524924185142    0.764033656596868    0.037441796389165  0.0000
  O2     O2        0.998689700771604    0.728042590246661    0.019335451670752  0.0000
  O2     O2        0.978914362871208    0.265137968145354    0.016805372360783  0.0000
  O2     O2        0.309435578848206    0.176744280615792    0.771431957264598  0.0000
  O2     O2        0.683808009890544    0.152543800011576    0.219651797528425  0.0000
  O2     O2        0.708479218742753    0.832524587699425    0.228664524723530  0.0000
  O3     O3        0.346876718852362    0.835539194729068    0.786614058705741  0.0000
  O2     O2        0.831577165833979    0.658138357500857    0.782291678668764  0.0000
  O2     O2        0.201505231505880    0.666745819246783    0.226785220644260  0.0000
  O3     O3        0.171494147115504    0.339369844075053    0.224024118218089  0.0000
  O2     O2        0.812140666521908    0.326632440241550    0.768932850432390  0.0000
  O2     O2        0.367602635455534    0.344499419809144    0.821960868340579  0.0000
  O2     O2        0.671953123550585    0.324702077282976    0.205052159519413  0.0000
  O3     O3        0.693074728232309    0.660725865661025    0.195802813198036  0.0000
  O2     O2        0.367037077134678    0.665079488605751    0.804199512663895  0.0000
  O2     O2        0.854967504858045    0.832066925561457    0.796561698112617  0.0000
  O2     O2        0.175961492967700    0.836291398128657    0.194792277251933  0.0000
  O3     O3        0.174277963115888    0.169423075225371    0.189177223725959  0.0000
  O2     O2        0.846594412389933    0.156014498176839    0.799871044364948  0.0000
  O2     O2        0.225337165447234    0.270485143627610    0.977578254305814  0.0000
  O2     O2        0.719681178917611    0.237335871423979    0.972865848190533  0.0000
  O2     O2        0.736843614213976    0.755540779666281    0.973409531978095  0.0000
  O2     O2        0.238816577409933    0.747146956040897    0.975288596799311  0.0000
  O3     O3        0.458513058828415    0.361640498685791    0.302888450594698  0.0000
  O2     O2        0.556800503839039    0.376924894225638    0.682432684430651  0.0000
  O2     O2        0.570768575485102    0.621185109234948    0.688682781417909  0.0000
  O3     O3        0.462771862225882    0.634335979545941    0.304499592647049  0.0000
  O2     O2        0.970689470146283    0.870365507616860    0.313257926435185  0.0000
  O3     O3        0.067156286042522    0.869377791361492    0.701880954685123  0.0000
  O2     O2        0.055127993285691    0.123391433891272    0.686183852204717  0.0000
  O3     O3        0.946384949580604    0.132156967446174    0.298639019361957  0.0000
  O3     O3        0.305346491818631    0.385147813273593    0.523340306774944  0.0000
  O2     O2        0.705080383713648    0.386760378693549    0.487762651936404  0.0000
  O3     O3        0.725825246083244    0.604773903053727    0.499211171891496  0.0000
  O2     O2        0.322498301862244    0.617379026038762    0.511151180482173  0.0000
  O2     O2        0.822365601729124    0.881645717859348    0.509943513987623  0.0000
  O3     O3        0.219218588607384    0.893235575820090    0.483690324064048  0.0000
  O3     O3        0.210614520512501    0.113275674478237    0.495872095544900  0.0000
  O2     O2        0.808740434472574    0.109273802855453    0.507323331314295  0.0000
  O3     O3        0.288051349472241    0.506343658056309    0.279795387929167  0.0000
  O2     O2        0.753577166715924    0.493885990037038    0.727172998847912  0.0000
  O2     O2        0.787802296863346    0.995277314410928    0.280745341168922  0.0000
  O3     O3        0.253908493204748    0.008852673552307    0.734635604295141  0.0000
  O2     O2        0.398648634372615    0.503476978304788    0.738277789645376  0.0000
  O3     O3        0.614566213200892    0.489085319123358    0.250531054893435  0.0000
  O2     O2        0.900384805669534    0.995915451825230    0.735589358672126  0.0000
  O3     O3        0.120500726365122    0.996679108608148    0.247629186226750  0.0000
