data_c01360.vasp
_audit_creation_method             Generated by GULP
_audit_author_name                 Salvador R. G. Balestra
_symmetry_space_group_name_H-M     'P 1             '
_symmetry_Int_Tables_number        1

loop_
_symmetry_equiv_pos_site_id
_symmetry_equiv_pos_as_xyz
_cell_length_a                       10.1941
_cell_length_b                       15.1897
_cell_length_c                        8.9871
_cell_angle_alpha                   89.9850
_cell_angle_beta                   105.3357
_cell_angle_gamma                   89.7854

loop_
_atom_site_label
_atom_site_type_symbol
_atom_site_fract_x
_atom_site_fract_y
_atom_site_fract_z
_atom_site_charge
  Ge     Ge        0.306699999999978    0.397900000000050    0.331699999999955  0.0000
  Ge     Ge        0.619702870303401    0.600644108057270    0.315290947279459  0.0000
  Ge     Ge        0.118126558441948    0.895322878530796    0.314635873427346  0.0000
  Ge     Ge        0.111697511729508    0.106933847904747    0.315374803554225  0.0000
  Si     Si        0.344865986003770    0.249447560288224    0.902292903010793  0.0000
  Si     Si        0.640254312600681    0.236746689357429    0.109489418516358  0.0000
  Si     Si        0.650670617223510    0.757481032343361    0.105524661729408  0.0000
  Si     Si        0.352738932205159    0.752268299353050    0.897874813923241  0.0000
  Si     Si        0.851993817251934    0.744307310324094    0.897222889342871  0.0000
  Si     Si        0.150596863264622    0.740936693208724    0.104185223289846  0.0000
  Si     Si        0.136894948785881    0.262370486004483    0.102245209423799  0.0000
  Si     Si        0.837442729223774    0.247113880171388    0.892957041090970  0.0000
  Si     Si        0.706087110998024    0.395955367526024    0.668449208444961  0.0000
  Si     Si        0.716982198962904    0.596285490592561    0.675078909343067  0.0000
  Si     Si        0.316187863170626    0.605997625495458    0.332119819518722  0.0000
  Si     Si        0.814358274850218    0.893909477786384    0.331457958743560  0.0000
  Si     Si        0.212724945095569    0.900266063794515    0.676124135977511  0.0000
  Si     Si        0.204223067574184    0.102344964347074    0.677793008367138  0.0000
  Si     Si        0.808402609659724    0.100214265236343    0.332121851992991  0.0000
  Si     Si        0.402802058606272    0.399655528411762    0.689590100768886  0.0000
  Si     Si        0.610890012750227    0.392344280777399    0.313641958824391  0.0000
  Si     Si        0.410801258422492    0.600786262810105    0.685776084884438  0.0000
  Si     Si        0.905915529942022    0.895323887093440    0.683143497515212  0.0000
  Si     Si        0.897893791737480    0.097043941936605    0.685409923685329  0.0000
  O2     O2        0.480578236308816    0.225842364486702    0.032526791224598  0.0000
  O2     O2        0.490471972963091    0.768211702036188    0.029100007064399  0.0000
  O2     O2        0.990732845624550    0.728966020319177    0.027379766128455  0.0000
  O2     O2        0.977363078091494    0.263685587566674    0.019370847944825  0.0000
  O2     O2        0.310765973794463    0.167281243177694    0.786773250479266  0.0000
  O2     O2        0.683172666519195    0.153591458200138    0.223268579552607  0.0000
  O2     O2        0.691506766576863    0.838015131233437    0.225612734100313  0.0000
  O2     O2        0.322243612853507    0.837948156537950    0.789225154853124  0.0000
  O2     O2        0.825142578834446    0.658740190517825    0.788335295954972  0.0000
  O2     O2        0.193601167439378    0.665719863062651    0.234160128655919  0.0000
  O3     O3        0.169649465666366    0.342944955344931    0.219876260785070  0.0000
  O2     O2        0.811179878149995    0.327488122077508    0.772031228386247  0.0000
  O2     O2        0.363247189667362    0.338675652927435    0.814992400760983  0.0000
  O2     O2        0.671819726470686    0.327223341572853    0.206639154585927  0.0000
  O3     O3        0.683166403775892    0.665154903472792    0.193906515302804  0.0000
  O2     O2        0.363328031863028    0.665869099782292    0.799836801491483  0.0000
  O2     O2        0.858531308918921    0.831517864541750    0.798960786373723  0.0000
  O3     O3        0.180910030771407    0.833754704081638    0.188864816896637  0.0000
  O3     O3        0.176935899493674    0.173171528577174    0.198577734767058  0.0000
  O2     O2        0.842447688109935    0.156223573935277    0.802684648523389  0.0000
  O2     O2        0.222689019233379    0.269813409633444    0.977316928256780  0.0000
  O2     O2        0.717541492242776    0.238721288393796    0.975930781819439  0.0000
  O2     O2        0.729695429265866    0.761067431591114    0.973967781479757  0.0000
  O2     O2        0.230728221792634    0.733166665700226    0.974014228706381  0.0000
  O3     O3        0.459184744023859    0.360832345858388    0.305951213298775  0.0000
  O2     O2        0.554992458127892    0.376886733797109    0.681724763293716  0.0000
  O2     O2        0.565798417111749    0.619935225829490    0.686916360578285  0.0000
  O3     O3        0.458629443791888    0.638496285317679    0.309020758916211  0.0000
  O3     O3        0.955319641677720    0.860138546884232    0.306913950274604  0.0000
  O2     O2        0.061578681691395    0.875869083141324    0.686749184381517  0.0000
  O2     O2        0.052790312050456    0.122155682212942    0.693783394522895  0.0000
  O3     O3        0.946414154764744    0.137909103103178    0.306528746296974  0.0000
  O3     O3        0.303349056174611    0.385078369585528    0.521947921610913  0.0000
  O2     O2        0.705515264366285    0.386437474005215    0.489758657681708  0.0000
  O3     O3        0.723054471014360    0.609384702109171    0.501116187447419  0.0000
  O2     O2        0.316883569130883    0.613307467576388    0.512393647604636  0.0000
  O2     O2        0.812718326695724    0.880525622403141    0.509725221188783  0.0000
  O3     O3        0.219107420620649    0.887382616061813    0.502229255813162  0.0000
  O3     O3        0.208733647969177    0.116906996538005    0.504063555435117  0.0000
  O2     O2        0.806472983009069    0.111469429743751    0.510764080391453  0.0000
  O3     O3        0.291437198350201    0.506490366958575    0.277917298752943  0.0000
  O2     O2        0.752001506385709    0.494658206567027    0.725450178032147  0.0000
  O2     O2        0.797468886871278    0.997098121573940    0.287625905641206  0.0000
  O2     O2        0.245504072687329    0.001531271485398    0.727042558539329  0.0000
  O2     O2        0.395551823590205    0.501236157591987    0.741612407856419  0.0000
  O3     O3        0.612588608802283    0.492017782719861    0.256665005328959  0.0000
  O2     O2        0.889639211692215    0.995589395539055    0.735471155691920  0.0000
  O1     O1        0.117758589571864    0.001553228563439    0.254575267542810  0.0000
