data_c01349.vasp
_audit_creation_method             Generated by GULP
_audit_author_name                 Salvador R. G. Balestra
_symmetry_space_group_name_H-M     'P 1             '
_symmetry_Int_Tables_number        1

loop_
_symmetry_equiv_pos_site_id
_symmetry_equiv_pos_as_xyz
_cell_length_a                       10.1480
_cell_length_b                       15.2419
_cell_length_c                        8.9834
_cell_angle_alpha                   90.0443
_cell_angle_beta                   105.4081
_cell_angle_gamma                   90.3243

loop_
_atom_site_label
_atom_site_type_symbol
_atom_site_fract_x
_atom_site_fract_y
_atom_site_fract_z
_atom_site_charge
  Ge     Ge        0.306699999999978    0.397900000000050    0.331699999999955  0.0000
  Ge     Ge        0.630721087319172    0.395279555595504    0.323564240348482  0.0000
  Ge     Ge        0.918350332947880    0.898841244171539    0.696930327329750  0.0000
  Ge     Ge        0.912736620757361    0.106988083683502    0.683907802268958  0.0000
  Si     Si        0.384482046117417    0.245591668180984    0.897050797093434  0.0000
  Si     Si        0.683491505041454    0.241949533039867    0.107068057414400  0.0000
  Si     Si        0.680046114406676    0.751616685198314    0.108222394036770  0.0000
  Si     Si        0.386119733921806    0.763008593772652    0.894032665358640  0.0000
  Si     Si        0.884591467992650    0.741097721209182    0.904398591925845  0.0000
  Si     Si        0.185715785226037    0.750125447462542    0.108116270174873  0.0000
  Si     Si        0.175487036336988    0.249399458334389    0.099726144044616  0.0000
  Si     Si        0.877557105831505    0.260256202806778    0.894813142302338  0.0000
  Si     Si        0.717726833022553    0.402805154275339    0.680025980295525  0.0000
  Si     Si        0.716234585389354    0.606841079712102    0.671872910958490  0.0000
  Si     Si        0.314240173360878    0.599526393780400    0.332687140740263  0.0000
  Si     Si        0.823059992965379    0.896346708243264    0.332615829093895  0.0000
  Si     Si        0.223660964520478    0.902015559722157    0.672581707135176  0.0000
  Si     Si        0.219675805165878    0.107929082918718    0.665738617419752  0.0000
  Si     Si        0.817545426758151    0.095334962411259    0.322666844321352  0.0000
  Si     Si        0.409131764925881    0.403686346186416    0.693793789609545  0.0000
  Si     Si        0.624406662668800    0.599442337289715    0.319420556949249  0.0000
  Si     Si        0.413746506984669    0.605807351773910    0.690369779386629  0.0000
  Si     Si        0.127717490478906    0.898542838884320    0.320261301086103  0.0000
  Si     Si        0.123423901883813    0.100789914863399    0.313580426562267  0.0000
  O2     O2        0.542941897112160    0.229589106154541    0.976389723649626  0.0000
  O2     O2        0.545890047873756    0.774700654126203    0.974706839314751  0.0000
  O2     O2        0.045359227933664    0.729035666144150    0.981641064117912  0.0000
  O2     O2        0.041225791747421    0.260953527352199    0.959312724214919  0.0000
  O2     O2        0.338603617734884    0.168388232550496    0.771305696761840  0.0000
  O2     O2        0.702511043269128    0.157624877549492    0.218625678991507  0.0000
  O2     O2        0.711588840082365    0.831608766801938    0.228416317453960  0.0000
  O2     O2        0.345738788368997    0.845921175241650    0.780659266772368  0.0000
  O2     O2        0.837260345043490    0.664387961920447    0.777723997515651  0.0000
  O2     O2        0.218069135202199    0.672348943239685    0.232084010246298  0.0000
  O3     O3        0.187322118519591    0.327705951706329    0.219986976034451  0.0000
  O2     O2        0.829542080824804    0.351907044574866    0.809779515182592  0.0000
  O2     O2        0.364705468748629    0.341320550907670    0.816759121583931  0.0000
  O3     O3        0.689969119149748    0.331024468350745    0.200309158414667  0.0000
  O2     O2        0.659287619686938    0.663645228474016    0.195770970105636  0.0000
  O2     O2        0.356897253849709    0.671872794459478    0.797741627709555  0.0000
  O3     O3        0.856081199193593    0.833078907895378    0.817803538021991  0.0000
  O2     O2        0.178107555986820    0.840464857220320    0.198047246098082  0.0000
  O2     O2        0.172197883173804    0.157741656952896    0.188677485599931  0.0000
  O3     O3        0.835338822034829    0.180789837918142    0.776349514133246  0.0000
  O2     O2        0.304402115638002    0.245318770378357    0.028350468916827  0.0000
  O2     O2        0.810702901241214    0.245481425224675    0.034128864395121  0.0000
  O2     O2        0.805785905518247    0.735132316556556    0.036152614249110  0.0000
  O2     O2        0.305222884240671    0.760860302118206    0.024304022159708  0.0000
  O1     O1        0.460146482442723    0.377404486649769    0.295473070513503  0.0000
  O2     O2        0.565691363439371    0.384988722343056    0.696499865390059  0.0000
  O2     O2        0.573760243874193    0.626863485142311    0.712266279084769  0.0000
  O2     O2        0.462943906193509    0.597710522044668    0.301974751192431  0.0000
  O2     O2        0.974145093738843    0.871497429547898    0.319229108030795  0.0000
  O3     O3        0.083720119776273    0.869188465034509    0.702800110599285  0.0000
  O3     O3        0.077781236862947    0.138920825695624    0.691123846003513  0.0000
  O2     O2        0.968422535889056    0.123678020851420    0.311173308532296  0.0000
  O3     O3        0.315579814095356    0.383155466405831    0.525045425794586  0.0000
  O3     O3        0.720177571036349    0.371761019664040    0.511620551405869  0.0000
  O2     O2        0.703366489587212    0.629989760170562    0.493239812460691  0.0000
  O2     O2        0.329527237439170    0.619525761286068    0.513181294991266  0.0000
  O3     O3        0.819217744295325    0.890260030960467    0.508242145919644  0.0000
  O2     O2        0.223274706163223    0.886306767328462    0.493975294040997  0.0000
  O2     O2        0.219014517624344    0.119904404429964    0.486041674905627  0.0000
  O3     O3        0.812009106684551    0.103878186042526    0.496700283861701  0.0000
  O3     O3        0.250846857094811    0.504304989569805    0.288607678071500  0.0000
  O2     O2        0.754341420020749    0.505429864750035    0.701823907503785  0.0000
  O2     O2        0.786846849136414    0.994680707838742    0.268065876317451  0.0000
  O2     O2        0.243607575485051    0.005587989708023    0.712252897564458  0.0000
  O2     O2        0.394106843014054    0.505491783081050    0.739940295255322  0.0000
  O3     O3        0.667245569295316    0.502730160907351    0.286949261124737  0.0000
  O1     O1        0.914178762235659    0.004212429236102    0.759373969952078  0.0000
  O2     O2        0.134500111704840    0.999295875893831    0.268766593973744  0.0000
