data_c01366.vasp
_audit_creation_method             Generated by GULP
_audit_author_name                 Salvador R. G. Balestra
_symmetry_space_group_name_H-M     'P 1             '
_symmetry_Int_Tables_number        1

loop_
_symmetry_equiv_pos_site_id
_symmetry_equiv_pos_as_xyz
_cell_length_a                       10.1851
_cell_length_b                       15.1516
_cell_length_c                        9.0045
_cell_angle_alpha                   89.4197
_cell_angle_beta                   105.4013
_cell_angle_gamma                   90.0467

loop_
_atom_site_label
_atom_site_type_symbol
_atom_site_fract_x
_atom_site_fract_y
_atom_site_fract_z
_atom_site_charge
  Ge     Ge        0.306699999999978    0.397900000000050    0.331699999999955  0.0000
  Ge     Ge        0.407470725598167    0.599030756306189    0.694067320222616  0.0000
  Ge     Ge        0.114552323560712    0.898476143259456    0.317436743246257  0.0000
  Ge     Ge        0.113664519057553    0.108891797747612    0.324071370137704  0.0000
  Si     Si        0.346210626226379    0.244586185643553    0.906854972087256  0.0000
  Si     Si        0.641202897939133    0.239625045236560    0.114020131041450  0.0000
  Si     Si        0.646933446256774    0.757111506187814    0.112217941577190  0.0000
  Si     Si        0.349440228333605    0.751694667569653    0.904394619459647  0.0000
  Si     Si        0.848193905959063    0.742268754269428    0.901093411959868  0.0000
  Si     Si        0.146217651146398    0.742920052370059    0.107880304264492  0.0000
  Si     Si        0.137002395613482    0.263481831317337    0.103007054882182  0.0000
  Si     Si        0.836954212521776    0.245653868350522    0.896482587260533  0.0000
  Si     Si        0.708077880493657    0.395985167310473    0.669732636933130  0.0000
  Si     Si        0.716782618827040    0.595156075876439    0.680144315171480  0.0000
  Si     Si        0.314760971522869    0.607513969053933    0.341085448194844  0.0000
  Si     Si        0.811198106481272    0.895491762045813    0.335713782795423  0.0000
  Si     Si        0.208853783600246    0.896877319227290    0.679026077116247  0.0000
  Si     Si        0.205476281162231    0.098240559255540    0.686962962599451  0.0000
  Si     Si        0.809248175078403    0.102443254169278    0.339925428526524  0.0000
  Si     Si        0.400386400984464    0.392516437493753    0.684223560330433  0.0000
  Si     Si        0.614377610008512    0.397321213953997    0.312646716640515  0.0000
  Si     Si        0.616635762154964    0.600255724055514    0.320804976167214  0.0000
  Si     Si        0.903013034206924    0.893275945448957    0.687335043075332  0.0000
  Si     Si        0.899450379042258    0.096229184686247    0.692065008934425  0.0000
  O2     O2        0.480978746062306    0.225633042403699    0.042398542489783  0.0000
  O2     O2        0.488187491139048    0.771733115009344    0.032999321448671  0.0000
  O2     O2        0.986168527648439    0.728692277199369    0.033921920695435  0.0000
  O2     O2        0.976513112077171    0.261396073525727    0.024382077895480  0.0000
  O2     O2        0.316584075183064    0.160024915140794    0.797133030245616  0.0000
  O2     O2        0.685858768641244    0.158719888169387    0.233508206650300  0.0000
  O2     O2        0.690934176869682    0.840122368732081    0.224274026651457  0.0000
  O2     O2        0.322409232873897    0.831266129807895    0.779700482101063  0.0000
  O2     O2        0.828427126221632    0.660571047076873    0.783503264090371  0.0000
  O2     O2        0.196530253601411    0.662262041029354    0.225507220611371  0.0000
  O3     O3        0.170814343380009    0.350210217304240    0.204744560852887  0.0000
  O2     O2        0.810848241098728    0.325756158481199    0.773422841770222  0.0000
  O2     O2        0.365676186023304    0.331673448076656    0.813712773237979  0.0000
  O2     O2        0.672338225702184    0.332950468900542    0.203100138717503  0.0000
  O2     O2        0.673626022608861    0.666410002401330    0.212524539929586  0.0000
  O3     O3        0.356063222145924    0.658220729854783    0.828273806780191  0.0000
  O2     O2        0.851613172756950    0.832238907429008    0.805860981074775  0.0000
  O3     O3        0.177948550010385    0.833349691840760    0.198854926186721  0.0000
  O3     O3        0.181756604602896    0.179788848360920    0.215231317626142  0.0000
  O2     O2        0.842936125067478    0.154134898098139    0.809436562316655  0.0000
  O2     O2        0.219148968338505    0.263057979584923    0.974399108846434  0.0000
  O2     O2        0.715925611561899    0.238267129808161    0.978343541326884  0.0000
  O2     O2        0.725434617383927    0.751241566099163    0.980326543191625  0.0000
  O2     O2        0.221892430368688    0.745832622786453    0.974803627590136  0.0000
  O3     O3        0.453719831255066    0.381925762184758    0.275558239950632  0.0000
  O2     O2        0.562827120781218    0.394368751905968    0.706183936361356  0.0000
  O3     O3        0.581606557647093    0.605488542682062    0.734755407736266  0.0000
  O2     O2        0.454901332473632    0.613633589019886    0.288936634895219  0.0000
  O3     O3        0.952250430068509    0.862678506602492    0.311360689192418  0.0000
  O2     O2        0.057907657418755    0.870095741145322    0.690437799630413  0.0000
  O2     O2        0.054460145494605    0.122494382060647    0.700813577851481  0.0000
  O3     O3        0.948389564307070    0.139644644253983    0.315431315457763  0.0000
  O3     O3        0.327609557219632    0.356289557965957    0.516452491672353  0.0000
  O2     O2        0.688204717685662    0.373729880245118    0.490483118251751  0.0000
  O2     O2        0.689879976712275    0.619715867046009    0.499290155315505  0.0000
  O3     O3        0.338617368785007    0.643221690473643    0.512445628797017  0.0000
  O2     O2        0.808929823538209    0.880463838145781    0.513605027399552  0.0000
  O3     O3        0.214723307391767    0.891718238791033    0.504703473676846  0.0000
  O3     O3        0.210573925469381    0.111682744390400    0.513130594431222  0.0000
  O2     O2        0.807492441125182    0.112090677796403    0.518180386089201  0.0000
  O3     O3        0.268868136064993    0.507239707668310    0.340039171554068  0.0000
  O2     O2        0.771048621981737    0.494029578770190    0.705551138388670  0.0000
  O2     O2        0.794375609880368    0.999510906556176    0.293611334784659  0.0000
  O2     O2        0.240771799225246    0.996800088154836    0.739157517396568  0.0000
  O3     O3        0.354328798596529    0.491632676703843    0.703802432915976  0.0000
  O2     O2        0.645128803746857    0.499562979020996    0.279026608154357  0.0000
  O2     O2        0.892101173534353    0.993935479999383    0.739965542752191  0.0000
  O1     O1        0.115604277382862    0.004829048524230    0.254899668308634  0.0000
