data_c01364.vasp
_audit_creation_method             Generated by GULP
_audit_author_name                 Salvador R. G. Balestra
_symmetry_space_group_name_H-M     'P 1             '
_symmetry_Int_Tables_number        1

loop_
_symmetry_equiv_pos_site_id
_symmetry_equiv_pos_as_xyz
_cell_length_a                       10.2243
_cell_length_b                       15.2418
_cell_length_c                        8.9377
_cell_angle_alpha                   90.6598
_cell_angle_beta                   105.3703
_cell_angle_gamma                   90.1629

loop_
_atom_site_label
_atom_site_type_symbol
_atom_site_fract_x
_atom_site_fract_y
_atom_site_fract_z
_atom_site_charge
  Ge     Ge        0.306699999999978    0.397900000000050    0.331699999999955  0.0000
  Ge     Ge        0.401799363751695    0.615242335387765    0.679017986274889  0.0000
  Ge     Ge        0.902023491347292    0.908669094064593    0.692567635440672  0.0000
  Ge     Ge        0.108872271880358    0.103265169192553    0.300140427096968  0.0000
  Si     Si        0.350386009907081    0.257285936223566    0.896198068432253  0.0000
  Si     Si        0.645591605961922    0.245708008215520    0.103381503647775  0.0000
  Si     Si        0.667548702958612    0.753631914074429    0.100450913720453  0.0000
  Si     Si        0.370027033723009    0.771961327906638    0.893832088769321  0.0000
  Si     Si        0.870699970994817    0.749719183386255    0.893034212985433  0.0000
  Si     Si        0.169245073024453    0.750365426110067    0.101661848415256  0.0000
  Si     Si        0.141379668254813    0.259193471594251    0.097158081802860  0.0000
  Si     Si        0.842512396775740    0.265200312882801    0.886623996990921  0.0000
  Si     Si        0.705074794053035    0.411692082359372    0.668096716832340  0.0000
  Si     Si        0.707754991952190    0.613854522998771    0.660207840407403  0.0000
  Si     Si        0.303865276155951    0.600689513015579    0.314515226251724  0.0000
  Si     Si        0.806615634383661    0.900464710385025    0.329863962765569  0.0000
  Si     Si        0.208767697465411    0.911604390233169    0.678284641729062  0.0000
  Si     Si        0.200796170305378    0.114869321440690    0.662533250505796  0.0000
  Si     Si        0.802618784921161    0.101955847453275    0.316781425018751  0.0000
  Si     Si        0.405188873474701    0.411886319107939    0.693774258556295  0.0000
  Si     Si        0.613887095211231    0.399682987096426    0.314494157383013  0.0000
  Si     Si        0.608650958350401    0.602194581160759    0.306066440299910  0.0000
  Si     Si        0.112173678450990    0.898671972388156    0.322192407333722  0.0000
  Si     Si        0.897829269166601    0.113101389244747    0.674989312062169  0.0000
  O2     O2        0.487942523231666    0.231709098278340    0.020174692130254  0.0000
  O2     O2        0.530825015680702    0.775105351075933    0.970849532776835  0.0000
  O2     O2        0.030107705196622    0.738389216516399    0.969832564397509  0.0000
  O2     O2        0.986261566152047    0.276837614674059    0.008815187162581  0.0000
  O2     O2        0.311481546037380    0.178606250928413    0.771283280146324  0.0000
  O2     O2        0.685380795031464    0.162319527190360    0.214254751700108  0.0000
  O2     O2        0.698861139274414    0.833934803991197    0.222920529927463  0.0000
  O2     O2        0.331862017378180    0.857621567741813    0.786865523626036  0.0000
  O2     O2        0.828264884816840    0.675542299499418    0.758599312675982  0.0000
  O2     O2        0.196349790736955    0.662489657184203    0.201067431633337  0.0000
  O3     O3        0.181744964323753    0.325547755020707    0.241567898421774  0.0000
  O2     O2        0.815152169775720    0.352240010707832    0.783095209010932  0.0000
  O2     O2        0.365959368440029    0.348191903736641    0.815517024187615  0.0000
  O2     O2        0.673258841488034    0.335957674134471    0.203928968903930  0.0000
  O2     O2        0.654513590669417    0.662218552842457    0.183475275368486  0.0000
  O3     O3        0.333077085345333    0.685671538229675    0.787631123353952  0.0000
  O3     O3        0.842838583110049    0.844790620794008    0.817499262385316  0.0000
  O2     O2        0.165403440237427    0.831111353989713    0.215756246035264  0.0000
  O3     O3        0.161022839862697    0.161421594294207    0.163213969884382  0.0000
  O2     O2        0.837820384731274    0.181258279987476    0.775622335319053  0.0000
  O2     O2        0.234659369528080    0.274962330121882    0.982273198810015  0.0000
  O2     O2        0.727785351616612    0.250226590098359    0.974909218261848  0.0000
  O2     O2        0.789402860755948    0.739574549292498    0.021960515736119  0.0000
  O2     O2        0.291022481599442    0.770847577866312    0.025920658664851  0.0000
  O3     O3        0.462078496447289    0.369274428243212    0.305229122811155  0.0000
  O2     O2        0.555534653245337    0.388454299407175    0.680429081318229  0.0000
  O3     O3        0.566819350331710    0.644988073857989    0.687832004259489  0.0000
  O2     O2        0.455888860853424    0.624659350829813    0.306135507841815  0.0000
  O2     O2        0.957843417650965    0.876841738943719    0.320845222691235  0.0000
  O3     O3        0.068288706357540    0.880711493177788    0.707279918873817  0.0000
  O2     O2        0.051642978523663    0.139335987674833    0.678436223461300  0.0000
  O3     O3        0.943438406057715    0.131353264194193    0.287889795404370  0.0000
  O3     O3        0.305625443226969    0.398758012324954    0.524127403779649  0.0000
  O2     O2        0.708212698903445    0.393197561048923    0.490729905129448  0.0000
  O2     O2        0.704299722617998    0.621041618105544    0.478632946736663  0.0000
  O3     O3        0.300743324200080    0.614563529124877    0.491148540803149  0.0000
  O3     O3        0.801505856847503    0.892658186298252    0.505679276499793  0.0000
  O2     O2        0.205580628412575    0.894138612713818    0.498448390780883  0.0000
  O3     O3        0.206184069553523    0.125210184468274    0.486914960575271  0.0000
  O2     O2        0.806696640690379    0.113514746126676    0.497722020798152  0.0000
  O3     O3        0.267814874941886    0.501840573921098    0.259875100564249  0.0000
  O2     O2        0.738269719685273    0.513403520634000    0.713428012636770  0.0000
  O2     O2        0.772007204756623    0.999686156928543    0.269648704635765  0.0000
  O2     O2        0.233077561284289    0.014799818958689    0.716510538942368  0.0000
  O3     O3        0.400784907373347    0.510834961183316    0.752128936320881  0.0000
  O2     O2        0.617515333664743    0.500162207429451    0.258284253315278  0.0000
  O3     O3        0.894261746127604    0.017441348336875    0.744631427416629  0.0000
  O3     O3        0.121142525026336    0.994313581036488    0.255453015666518  0.0000
