data_c01345.vasp
_audit_creation_method             Generated by GULP
_audit_author_name                 Salvador R. G. Balestra
_symmetry_space_group_name_H-M     'P 1             '
_symmetry_Int_Tables_number        1

loop_
_symmetry_equiv_pos_site_id
_symmetry_equiv_pos_as_xyz
_cell_length_a                       10.1729
_cell_length_b                       15.2695
_cell_length_c                        8.9415
_cell_angle_alpha                   89.9573
_cell_angle_beta                   105.1532
_cell_angle_gamma                   90.3847

loop_
_atom_site_label
_atom_site_type_symbol
_atom_site_fract_x
_atom_site_fract_y
_atom_site_fract_z
_atom_site_charge
  Ge     Ge        0.306699999999978    0.397900000000050    0.331699999999955  0.0000
  Ge     Ge        0.619412872014999    0.398287029603756    0.311819159412641  0.0000
  Ge     Ge        0.409514722337472    0.612350265751284    0.685825006196705  0.0000
  Ge     Ge        0.115923638894730    0.106028955598696    0.301704361179528  0.0000
  Si     Si        0.351757793045055    0.255943668060419    0.897565088535856  0.0000
  Si     Si        0.644410943337579    0.240840427397032    0.102650982682707  0.0000
  Si     Si        0.674828728184495    0.757881578322451    0.103457553751858  0.0000
  Si     Si        0.376586652392380    0.770308102534299    0.896676349534010  0.0000
  Si     Si        0.878727134674391    0.750728938587675    0.891872632506678  0.0000
  Si     Si        0.175578315642022    0.750887030292471    0.106126434839519  0.0000
  Si     Si        0.139943944420816    0.262919363688259    0.093787961608767  0.0000
  Si     Si        0.838888174734076    0.256996364402442    0.886167627029096  0.0000
  Si     Si        0.712941377196224    0.410642406644369    0.665667908803935  0.0000
  Si     Si        0.717963982855263    0.610718014191972    0.666557352086061  0.0000
  Si     Si        0.312809572693415    0.603219553011741    0.322234007815858  0.0000
  Si     Si        0.816702963663994    0.900448194971997    0.332691676846819  0.0000
  Si     Si        0.214595063495811    0.911088389567733    0.676124600345268  0.0000
  Si     Si        0.208061938396804    0.113148706668870    0.664870636650277  0.0000
  Si     Si        0.807328592210907    0.101480265370188    0.319553088405695  0.0000
  Si     Si        0.406263363709101    0.410187002330729    0.687309310978377  0.0000
  Si     Si        0.616563156129155    0.605085626521909    0.309641060763582  0.0000
  Si     Si        0.910316316149380    0.907202081798406    0.689605538879868  0.0000
  Si     Si        0.121049951134364    0.900726619117487    0.319729024086437  0.0000
  Si     Si        0.902542867340161    0.107649798002037    0.676399513575154  0.0000
  O2     O2        0.482663173867813    0.230153409045685    0.032895548458239  0.0000
  O2     O2        0.537044296762558    0.779266582878477    0.974962304355104  0.0000
  O2     O2        0.036365769229507    0.736991275495511    0.975375957883793  0.0000
  O2     O2        0.980721697361146    0.271243551967544    0.011148962509996  0.0000
  O2     O2        0.316217773057228    0.176993338182035    0.775324899199283  0.0000
  O2     O2        0.685479680766561    0.159776077664817    0.220243425739388  0.0000
  O2     O2        0.705341713802696    0.835108055113603    0.230638380393021  0.0000
  O2     O2        0.332320992999868    0.853656714584870    0.784591953712411  0.0000
  O2     O2        0.835840722583918    0.673745555049169    0.765611428319050  0.0000
  O2     O2        0.201379796554393    0.664865955090164    0.212073762486591  0.0000
  O3     O3        0.174084604798433    0.334082269644722    0.228669734613641  0.0000
  O2     O2        0.806874858677515    0.345291645395322    0.786653272613505  0.0000
  O2     O2        0.385922683640414    0.343490916640004    0.816750011377128  0.0000
  O3     O3        0.682442611628936    0.331950291062372    0.191521625310630  0.0000
  O2     O2        0.666108977252770    0.666631894485200    0.189514946977799  0.0000
  O3     O3        0.344579120124515    0.682330966823251    0.797215830391315  0.0000
  O2     O2        0.856638117681926    0.844658093669908    0.805266346191396  0.0000
  O2     O2        0.175079395750997    0.834611747480976    0.213025009382792  0.0000
  O3     O3        0.171665938373548    0.167474996211889    0.169997935914139  0.0000
  O2     O2        0.842899265867141    0.172868833544830    0.780221034134458  0.0000
  O2     O2        0.227628197471973    0.278250366898340    0.970286520650717  0.0000
  O2     O2        0.718909664312830    0.236479462771046    0.965800397421863  0.0000
  O2     O2        0.794642358175083    0.748775277079041    0.019416475875008  0.0000
  O2     O2        0.298061709490254    0.767859887745784    0.029007668615376  0.0000
  O1     O1        0.457585198441727    0.363030729951866    0.303498459248121  0.0000
  O2     O2        0.552087393480446    0.398005718052348    0.648666923279705  0.0000
  O3     O3        0.576468550174731    0.639576494598070    0.697054452588792  0.0000
  O2     O2        0.464108508191108    0.630422042456277    0.312191181285974  0.0000
  O2     O2        0.963278994475658    0.880088737643745    0.306113474530280  0.0000
  O2     O2        0.069378943917081    0.888286485476889    0.707784673117880  0.0000
  O2     O2        0.059042315634764    0.131373155592899    0.688945910442297  0.0000
  O3     O3        0.946750527749652    0.129239527867303    0.282575543248477  0.0000
  O3     O3        0.299323181200650    0.394291372583864    0.523366442575849  0.0000
  O3     O3        0.729192604897065    0.392680584523253    0.496056659454482  0.0000
  O2     O2        0.712407828909622    0.617484763225423    0.484264839831479  0.0000
  O3     O3        0.308555105947948    0.614563772831403    0.498550917127683  0.0000
  O2     O2        0.823483239784748    0.888412742351990    0.513798464080030  0.0000
  O2     O2        0.208338402689184    0.890531679822272    0.497673607788995  0.0000
  O3     O3        0.207442581430566    0.130551853871629    0.489105807673047  0.0000
  O2     O2        0.815703419171798    0.117690427413544    0.499866378284035  0.0000
  O3     O3        0.281681730801584    0.504536715583278    0.267228916217167  0.0000
  O2     O2        0.753735360206025    0.510436873165514    0.720642586442340  0.0000
  O2     O2        0.775048235806440    0.999347333355530    0.279584019542097  0.0000
  O2     O2        0.250256030823007    0.013065300962819    0.710381334385649  0.0000
  O3     O3        0.399143928517951    0.506747195846339    0.752547176181486  0.0000
  O3     O3        0.619734321875579    0.506297582593722    0.253279871454125  0.0000
  O2     O2        0.891062393647913    0.008032053084670    0.733960222833606  0.0000
  O3     O3        0.137505030292603    0.997928611349910    0.262270868311273  0.0000
