data_c01368.vasp
_audit_creation_method             Generated by GULP
_audit_author_name                 Salvador R. G. Balestra
_symmetry_space_group_name_H-M     'P 1             '
_symmetry_Int_Tables_number        1

loop_
_symmetry_equiv_pos_site_id
_symmetry_equiv_pos_as_xyz
_cell_length_a                       10.2033
_cell_length_b                       15.2437
_cell_length_c                        8.9838
_cell_angle_alpha                   89.5977
_cell_angle_beta                   105.5130
_cell_angle_gamma                   90.1843

loop_
_atom_site_label
_atom_site_type_symbol
_atom_site_fract_x
_atom_site_fract_y
_atom_site_fract_z
_atom_site_charge
  Ge     Ge        0.306699999999978    0.397900000000050    0.331699999999955  0.0000
  Ge     Ge        0.414859917601718    0.602265867277306    0.698924682981859  0.0000
  Ge     Ge        0.116495660588808    0.102085102221437    0.318071322591837  0.0000
  Ge     Ge        0.901334549065660    0.095831100005323    0.693812739947744  0.0000
  Si     Si        0.349224265405486    0.245370981744474    0.904488815287247  0.0000
  Si     Si        0.642530609345615    0.240591133352480    0.114504461767193  0.0000
  Si     Si        0.680548014921194    0.748923793840282    0.108993393748658  0.0000
  Si     Si        0.380230073577290    0.759141703272515    0.906058856668312  0.0000
  Si     Si        0.882978361409401    0.735325741341216    0.898735072873439  0.0000
  Si     Si        0.178329611010542    0.747859696242067    0.111976348294079  0.0000
  Si     Si        0.141265205842433    0.258022570203284    0.102521630364922  0.0000
  Si     Si        0.837775149714535    0.247718920733785    0.898511139870826  0.0000
  Si     Si        0.709777315368470    0.395964370282774    0.674485090384796  0.0000
  Si     Si        0.721903219406470    0.595477568696533    0.679858542154190  0.0000
  Si     Si        0.318895163139832    0.604264129693159    0.339079237839617  0.0000
  Si     Si        0.818073860480583    0.895862935252107    0.333795495024912  0.0000
  Si     Si        0.214523647338763    0.897906064073390    0.678229943398845  0.0000
  Si     Si        0.207533769421180    0.101013046555920    0.685784091644936  0.0000
  Si     Si        0.809046181637436    0.096943259779526    0.326260099888598  0.0000
  Si     Si        0.405107127846278    0.396056136701883    0.691213558680101  0.0000
  Si     Si        0.615089216368387    0.396087319191052    0.316719452013757  0.0000
  Si     Si        0.621215025352376    0.597110457802769    0.320210868534752  0.0000
  Si     Si        0.909374367156232    0.890738423999302    0.689479841798955  0.0000
  Si     Si        0.123759274539366    0.898579467037643    0.322898805376864  0.0000
  O2     O2        0.482487003977751    0.226932462010219    0.042153033586161  0.0000
  O2     O2        0.541044559013441    0.769534408434320    0.981906236606894  0.0000
  O2     O2        0.041752001638268    0.726253767885106    0.981756040362318  0.0000
  O2     O2        0.980972410529661    0.259007956331331    0.023186782222895  0.0000
  O2     O2        0.325113363570749    0.162473135119984    0.789943242735825  0.0000
  O2     O2        0.689023549371001    0.156790886013407    0.224313006364413  0.0000
  O2     O2        0.712061261245259    0.830549166014918    0.225440026666459  0.0000
  O2     O2        0.332709352720245    0.838147938230726    0.783232541323730  0.0000
  O2     O2        0.843240346970624    0.654466557179659    0.781298184635364  0.0000
  O2     O2        0.207934748561102    0.665790059904721    0.227450566974007  0.0000
  O3     O3        0.175281251118199    0.340862146194401    0.213911511340785  0.0000
  O2     O2        0.817357404172656    0.327918247824926    0.775643836364165  0.0000
  O2     O2        0.364308808375166    0.334368421708529    0.815514583060008  0.0000
  O2     O2        0.674542211202355    0.330498535787275    0.211792892033807  0.0000
  O2     O2        0.673566080913659    0.660181890423758    0.205072109753564  0.0000
  O3     O3        0.353385966383248    0.666582082076866    0.820850450434171  0.0000
  O2     O2        0.855360837151492    0.824885078095629    0.799541064545777  0.0000
  O2     O2        0.168107277829080    0.835183720356813    0.205483149982242  0.0000
  O3     O3        0.182395325909918    0.170542716795213    0.204694808089430  0.0000
  O3     O3        0.829050379823944    0.157065775229400    0.809219094470013  0.0000
  O2     O2        0.221702647541502    0.261151864095883    0.972516518887130  0.0000
  O2     O2        0.716810045776579    0.247719607149286    0.979915488070548  0.0000
  O2     O2        0.799419591460334    0.735894194592249    0.025990104442399  0.0000
  O2     O2        0.301802816098569    0.764094269354144    0.037180404293430  0.0000
  O3     O3        0.453883109424716    0.383170456862362    0.276020047116861  0.0000
  O2     O2        0.567525287930197    0.392657880345934    0.717529129053319  0.0000
  O3     O3        0.589280964185735    0.611839504050758    0.738030741937543  0.0000
  O2     O2        0.459817747175184    0.606932236754314    0.288956982347464  0.0000
  O2     O2        0.961319070387339    0.893667095526290    0.292103790718731  0.0000
  O2     O2        0.072963991375211    0.883403348892446    0.722733123087045  0.0000
  O3     O3        0.074663536684537    0.111167200823200    0.746615619158597  0.0000
  O3     O3        0.941622206331703    0.110412524850280    0.265943883142328  0.0000
  O3     O3        0.330719079772755    0.363865999894582    0.520827587608132  0.0000
  O2     O2        0.684392715864658    0.371733835861023    0.495112712731450  0.0000
  O2     O2        0.694001605526388    0.619753821393671    0.498319660421121  0.0000
  O3     O3        0.344858483077365    0.637319710305243    0.512121718670510  0.0000
  O2     O2        0.838430721293582    0.866972811969638    0.511145165732446  0.0000
  O2     O2        0.196437038875359    0.871898445566925    0.500154561832308  0.0000
  O3     O3        0.176722010747679    0.130804822379308    0.509246075925052  0.0000
  O3     O3        0.838565389408117    0.124589376195401    0.503166145103531  0.0000
  O3     O3        0.261769576828004    0.506536003482803    0.323602387744890  0.0000
  O2     O2        0.769406477687723    0.494165590745419    0.704875092677618  0.0000
  O2     O2        0.761354024923417    0.994990539333873    0.309761587286402  0.0000
  O2     O2        0.257167141503089    0.999746754855690    0.701492524309627  0.0000
  O3     O3        0.366207879464910    0.495328059356061    0.717501046423890  0.0000
  O2     O2        0.652233628660580    0.496532056666678    0.283770182881703  0.0000
  O3     O3        0.867574282264393    0.987289176258040    0.723877567638624  0.0000
  O3     O3        0.164917460644671    0.996471444189854    0.291134403326393  0.0000
