data_c01363.vasp
_audit_creation_method             Generated by GULP
_audit_author_name                 Salvador R. G. Balestra
_symmetry_space_group_name_H-M     'P 1             '
_symmetry_Int_Tables_number        1

loop_
_symmetry_equiv_pos_site_id
_symmetry_equiv_pos_as_xyz
_cell_length_a                       10.1840
_cell_length_b                       15.2412
_cell_length_c                        8.9712
_cell_angle_alpha                   89.7414
_cell_angle_beta                   105.4685
_cell_angle_gamma                   90.0200

loop_
_atom_site_label
_atom_site_type_symbol
_atom_site_fract_x
_atom_site_fract_y
_atom_site_fract_z
_atom_site_charge
  Ge     Ge        0.306699999999978    0.397900000000050    0.331699999999955  0.0000
  Ge     Ge        0.412214848299426    0.598019237657626    0.699557974635408  0.0000
  Ge     Ge        0.906874063427134    0.890811655532560    0.695506628515717  0.0000
  Ge     Ge        0.122759585173707    0.896223095886555    0.325529064455415  0.0000
  Si     Si        0.369409269747663    0.239340990722299    0.906799052542056  0.0000
  Si     Si        0.668769672487500    0.240121737967580    0.115913082904446  0.0000
  Si     Si        0.680961474413510    0.744367821651223    0.112753094622764  0.0000
  Si     Si        0.382986597341503    0.755980444282716    0.905735039632182  0.0000
  Si     Si        0.883002481313433    0.731556873172483    0.905883935830075  0.0000
  Si     Si        0.180650018889446    0.746167954559283    0.110897388473786  0.0000
  Si     Si        0.161456728799700    0.252493811503649    0.109910058888896  0.0000
  Si     Si        0.864285251096524    0.249673292511923    0.896524183672200  0.0000
  Si     Si        0.705539388245272    0.392605825235079    0.674158567403007  0.0000
  Si     Si        0.717199119557568    0.595833679835322    0.679355513208196  0.0000
  Si     Si        0.313954865790847    0.600023621385021    0.336199885155440  0.0000
  Si     Si        0.810182705671325    0.892841579750171    0.336174902103694  0.0000
  Si     Si        0.217504496033010    0.894669871622709    0.682059865342525  0.0000
  Si     Si        0.204047301435355    0.099783300695305    0.681952086745830  0.0000
  Si     Si        0.811092167669512    0.094141554571204    0.336379574090408  0.0000
  Si     Si        0.404606187440762    0.394692116180859    0.696718484045671  0.0000
  Si     Si        0.615491041431574    0.392324043598149    0.320579711982759  0.0000
  Si     Si        0.619548366419988    0.595613991754221    0.326307132994981  0.0000
  Si     Si        0.115100882550530    0.102314725863872    0.326488935230427  0.0000
  Si     Si        0.902495350811955    0.095469200381124    0.695116040967896  0.0000
  O2     O2        0.525913496690912    0.222345688991019    0.993705863102264  0.0000
  O2     O2        0.545253999526297    0.759900446331822    0.976336915318288  0.0000
  O2     O2        0.044442287942588    0.722498190880233    0.979507369042867  0.0000
  O2     O2        0.023201043531668    0.260782624997766    0.976048899927910  0.0000
  O2     O2        0.320090509775725    0.157789767928292    0.792944141290620  0.0000
  O2     O2        0.697086921958247    0.159614747682341    0.237738762192149  0.0000
  O2     O2        0.703083213983009    0.829036830541637    0.222814756827293  0.0000
  O2     O2        0.338472025686559    0.841800512038672    0.799425089929730  0.0000
  O2     O2        0.840552786591751    0.651672800053131    0.785467899711693  0.0000
  O2     O2        0.207875133537531    0.672140540555297    0.243769026181124  0.0000
  O3     O3        0.178219152510139    0.334438575455304    0.222866969961355  0.0000
  O2     O2        0.819491145591356    0.332502220767354    0.783929897992400  0.0000
  O2     O2        0.351622774256971    0.328559203870318    0.807239813702774  0.0000
  O2     O2        0.672310013840585    0.332063838727516    0.205100213909138  0.0000
  O2     O2        0.670974018072945    0.656195691666486    0.207974949773749  0.0000
  O3     O3        0.344337904124124    0.668487636951974    0.806585549571617  0.0000
  O3     O3        0.848630998009233    0.823277834051468    0.816835512703662  0.0000
  O3     O3        0.167580823813033    0.839797574638029    0.183122488448195  0.0000
  O2     O2        0.168205384428690    0.165313237335668    0.212875705250808  0.0000
  O2     O2        0.837646220694061    0.160895351768866    0.795913168288616  0.0000
  O2     O2        0.286446874283309    0.249056660168479    0.033400321249821  0.0000
  O2     O2        0.784847806566578    0.244812095005458    0.026956394165762  0.0000
  O2     O2        0.807155867206095    0.728722175585427    0.041130073712321  0.0000
  O2     O2        0.309425129935412    0.751751320572410    0.041743329706373  0.0000
  O3     O3        0.461819875450140    0.365336687008899    0.307845054651799  0.0000
  O2     O2        0.557057849410878    0.367554042804283    0.691343641359281  0.0000
  O3     O3        0.577296909348436    0.628507575477924    0.708419267485513  0.0000
  O2     O2        0.467065421097241    0.621593491894158    0.326373178483175  0.0000
  O3     O3        0.960902206622202    0.868007360908929    0.329458002908072  0.0000
  O3     O3        0.072169494865761    0.863390629458534    0.700011788021246  0.0000
  O2     O2        0.058203092555378    0.123819453785752    0.708544310488870  0.0000
  O2     O2        0.956558167232704    0.121125936699073    0.312280919159199  0.0000
  O3     O3        0.307984849934580    0.391634494495851    0.524183144282909  0.0000
  O2     O2        0.707350455202983    0.378585931237349    0.496553698250166  0.0000
  O2     O2        0.715818691334250    0.609170678108210    0.499638002240079  0.0000
  O3     O3        0.311075864061665    0.602878855413586    0.512595181832801  0.0000
  O3     O3        0.801730949163227    0.881065590018736    0.510282228475936  0.0000
  O3     O3        0.227040694316957    0.878075396707416    0.509166757609284  0.0000
  O2     O2        0.202036457333231    0.118167487702557    0.503901200827179  0.0000
  O2     O2        0.814732408155393    0.100717466716318    0.516473753652869  0.0000
  O3     O3        0.272859440058700    0.504562852291755    0.268018822276986  0.0000
  O2     O2        0.738729650470350    0.493277040055222    0.723282560486048  0.0000
  O2     O2        0.776716767626282    0.994000836723462    0.281371401643438  0.0000
  O2     O2        0.235490074236924    0.997886791743854    0.721148531435065  0.0000
  O3     O3        0.407530089837113    0.491733474512652    0.764891785510221  0.0000
  O2     O2        0.623694014495793    0.494575068980463    0.273728728789054  0.0000
  O3     O3        0.899053047751094    0.997580598256495    0.756759076271861  0.0000
  O3     O3        0.133724184225921    0.004489782058091    0.276135185667717  0.0000
