data_c01370.vasp
_audit_creation_method             Generated by GULP
_audit_author_name                 Salvador R. G. Balestra
_symmetry_space_group_name_H-M     'P 1             '
_symmetry_Int_Tables_number        1

loop_
_symmetry_equiv_pos_site_id
_symmetry_equiv_pos_as_xyz
_cell_length_a                       10.2194
_cell_length_b                       15.2043
_cell_length_c                        9.0062
_cell_angle_alpha                   89.6690
_cell_angle_beta                   105.7086
_cell_angle_gamma                   90.0715

loop_
_atom_site_label
_atom_site_type_symbol
_atom_site_fract_x
_atom_site_fract_y
_atom_site_fract_z
_atom_site_charge
  Ge     Ge        0.306699999999978    0.397900000000050    0.331699999999955  0.0000
  Ge     Ge        0.913564714792732    0.885995075745995    0.695072117073413  0.0000
  Ge     Ge        0.129048034555858    0.896690142880441    0.318852160791899  0.0000
  Ge     Ge        0.905316437083526    0.096609802070877    0.695782506424574  0.0000
  Si     Si        0.375642852683180    0.240435293783073    0.905188591186118  0.0000
  Si     Si        0.673831033496701    0.241661406996438    0.115532424569982  0.0000
  Si     Si        0.681640127359360    0.744487636621432    0.115039697576162  0.0000
  Si     Si        0.386274352960645    0.751213471857010    0.899422214570524  0.0000
  Si     Si        0.881749208166784    0.730312374317256    0.908749677696020  0.0000
  Si     Si        0.183874925554786    0.745586193966434    0.107407847030403  0.0000
  Si     Si        0.167607685806822    0.251377259231332    0.106793069753041  0.0000
  Si     Si        0.868043394265165    0.250616366905174    0.902063200878688  0.0000
  Si     Si        0.708144114284140    0.391235815582242    0.676777120855107  0.0000
  Si     Si        0.717021880807457    0.593416712311582    0.681669467277517  0.0000
  Si     Si        0.318419187190457    0.601980640165311    0.337586283618560  0.0000
  Si     Si        0.821922264079230    0.891375544751534    0.330274053652737  0.0000
  Si     Si        0.221608550278933    0.893616497570442    0.682982387850763  0.0000
  Si     Si        0.213528642254082    0.098563186404069    0.683832862804697  0.0000
  Si     Si        0.818348088300646    0.094561505314063    0.333873360692882  0.0000
  Si     Si        0.406483827370992    0.394611750151793    0.694386834653144  0.0000
  Si     Si        0.616304278386617    0.391974552270819    0.323183484598342  0.0000
  Si     Si        0.622119471747445    0.595404152249090    0.327474597243288  0.0000
  Si     Si        0.415856509650420    0.596624013330348    0.694156750619823  0.0000
  Si     Si        0.123370738891107    0.101060260883475    0.327374947787392  0.0000
  O2     O2        0.533072929120985    0.225282109143947    0.989137133984815  0.0000
  O2     O2        0.544870122880790    0.760971395538716    0.981984854180905  0.0000
  O2     O2        0.042603015006763    0.722311182642006    0.984882211464109  0.0000
  O2     O2        0.029713461231568    0.257126224908224    0.971505178603431  0.0000
  O2     O2        0.330769536519471    0.159885715395391    0.787470038351617  0.0000
  O2     O2        0.703962714338874    0.154997841548882    0.222494096197025  0.0000
  O2     O2        0.705805751628531    0.830184471428426    0.222996545102382  0.0000
  O2     O2        0.343625980470526    0.836077864216686    0.789919416913751  0.0000
  O2     O2        0.837097141784880    0.649585043770372    0.790342037898446  0.0000
  O2     O2        0.212543216171145    0.674286135174089    0.246199466491722  0.0000
  O3     O3        0.181521137192998    0.335592272679133    0.214405598909689  0.0000
  O2     O2        0.823967649833974    0.330441940659334    0.781353585420416  0.0000
  O2     O2        0.355042374187524    0.332922610483330    0.812476198142027  0.0000
  O2     O2        0.673597814435070    0.329733716524072    0.212761745222620  0.0000
  O2     O2        0.676859980684661    0.656843557879837    0.213665593572511  0.0000
  O2     O2        0.358345032474878    0.661801526401901    0.800189112926754  0.0000
  O3     O3        0.848591058290406    0.819323314671726    0.811529057064564  0.0000
  O3     O3        0.183700244873422    0.840043444125987    0.183060947832884  0.0000
  O2     O2        0.173757058758701    0.166296091146818    0.215185086217133  0.0000
  O3     O3        0.835171394481526    0.160141135940255    0.811235802825014  0.0000
  O2     O2        0.292590061164929    0.244805283386754    0.031689318533738  0.0000
  O2     O2        0.794225452671059    0.256745697795046    0.036224712068377  0.0000
  O2     O2        0.805780636229359    0.728443292302144    0.041961818740313  0.0000
  O2     O2        0.303718617832289    0.743115019353514    0.025380633329966  0.0000
  O3     O3        0.460900734052017    0.368583986532192    0.304077756908141  0.0000
  O2     O2        0.560920056443851    0.368352030832253    0.699718857670107  0.0000
  O2     O2        0.573035471206197    0.620057866692793    0.709866848120539  0.0000
  O2     O2        0.466677937998111    0.619704996711198    0.313300222496653  0.0000
  O3     O3        0.955437903006653    0.885160779984001    0.271111534423889  0.0000
  O3     O3        0.088667576656614    0.878643032260085    0.741189366384190  0.0000
  O3     O3        0.080066082802802    0.107787212284937    0.741618817738570  0.0000
  O2     O2        0.959591943144030    0.101341327068003    0.286654892108650  0.0000
  O3     O3        0.311688395394992    0.382918715053523    0.523330588954168  0.0000
  O2     O2        0.703859538452465    0.375658802105331    0.499095359293986  0.0000
  O2     O2        0.711940742805361    0.610448201111146    0.502959233037394  0.0000
  O2     O2        0.327093671877982    0.609000759024406    0.518518876177564  0.0000
  O3     O3        0.851623073162555    0.857654032763183    0.504064880643099  0.0000
  O3     O3        0.197071871609222    0.863789991587095    0.507303556130770  0.0000
  O2     O2        0.184471330746850    0.129428805161898    0.505661999949294  0.0000
  O3     O3        0.838293289093961    0.127093009409994    0.505813048443581  0.0000
  O3     O3        0.268610371811231    0.505971158887824    0.279740462947032  0.0000
  O2     O2        0.747432221041635    0.491473283386694    0.723628280903240  0.0000
  O2     O2        0.770615750153033    0.992735707136230    0.321427943409866  0.0000
  O2     O2        0.261453541433507    0.996917040855296    0.697094077486831  0.0000
  O2     O2        0.401981841901690    0.496147406778651    0.746773935846794  0.0000
  O2     O2        0.631438062417600    0.494076794970809    0.278665108033624  0.0000
  O1     O1        0.866072849935589    0.990300744326774    0.724613408047126  0.0000
  O3     O3        0.173480630613707    0.004854615210972    0.301143159015399  0.0000
