data_c01353.vasp
_audit_creation_method             Generated by GULP
_audit_author_name                 Salvador R. G. Balestra
_symmetry_space_group_name_H-M     'P 1             '
_symmetry_Int_Tables_number        1

loop_
_symmetry_equiv_pos_site_id
_symmetry_equiv_pos_as_xyz
_cell_length_a                       10.2153
_cell_length_b                       15.2532
_cell_length_c                        8.9627
_cell_angle_alpha                   90.2136
_cell_angle_beta                   105.4967
_cell_angle_gamma                   89.8859

loop_
_atom_site_label
_atom_site_type_symbol
_atom_site_fract_x
_atom_site_fract_y
_atom_site_fract_z
_atom_site_charge
  Ge     Ge        0.306699999999978    0.397900000000050    0.331699999999955  0.0000
  Ge     Ge        0.621662750829414    0.596886975796710    0.313550034010030  0.0000
  Ge     Ge        0.414590363437556    0.604902180407823    0.694233524980706  0.0000
  Ge     Ge        0.911972076142438    0.897085471723322    0.688562548693168  0.0000
  Si     Si        0.352004425996834    0.246026483704207    0.899833219358075  0.0000
  Si     Si        0.648047806060739    0.237331640659108    0.106225199165449  0.0000
  Si     Si        0.683554184244033    0.749633990061994    0.100742236329893  0.0000
  Si     Si        0.382990596895933    0.763611301797039    0.899417706404511  0.0000
  Si     Si        0.887218926489894    0.739175219725226    0.896748446082733  0.0000
  Si     Si        0.183126797943769    0.751396063248456    0.107711440847697  0.0000
  Si     Si        0.143354072317168    0.254425217555752    0.104046429918528  0.0000
  Si     Si        0.844720448321799    0.252517533960193    0.889758266162800  0.0000
  Si     Si        0.705451610824700    0.399454056393362    0.671237516775359  0.0000
  Si     Si        0.719181970507002    0.600663388518428    0.678628275698746  0.0000
  Si     Si        0.315707684796762    0.602411349430855    0.326980630173906  0.0000
  Si     Si        0.816799054351522    0.895780655196097    0.327277220032078  0.0000
  Si     Si        0.219858741007350    0.901826568423180    0.674955829404088  0.0000
  Si     Si        0.205892101326802    0.105093537396036    0.669293895922906  0.0000
  Si     Si        0.812426763964112    0.096035477504253    0.323794846441207  0.0000
  Si     Si        0.404316299362194    0.400051994083888    0.694486093854191  0.0000
  Si     Si        0.615083045991346    0.392948487448925    0.314096407874951  0.0000
  Si     Si        0.122404936317135    0.899677269045178    0.320597546059284  0.0000
  Si     Si        0.114082477953408    0.101417421925680    0.313287284894881  0.0000
  Si     Si        0.904523888746874    0.101572206867893    0.683177339521305  0.0000
  O2     O2        0.490418580803451    0.221368973172117    0.024697067701837  0.0000
  O2     O2        0.544803560203265    0.768033628646441    0.970449297348409  0.0000
  O2     O2        0.048485969010691    0.733440091249561    0.971207692847533  0.0000
  O2     O2        0.987402753643986    0.265289755602690    0.012903778587269  0.0000
  O2     O2        0.318845743507562    0.168951960526336    0.772033454653849  0.0000
  O2     O2        0.695169027487570    0.156015178154467    0.220875919998143  0.0000
  O2     O2        0.708383611033880    0.831293870649125    0.219160133305738  0.0000
  O2     O2        0.341674525547653    0.845702093215838    0.783097331000644  0.0000
  O2     O2        0.844983141118333    0.656666386961873    0.780977444486700  0.0000
  O2     O2        0.206780666017495    0.669644467733475    0.223837580103215  0.0000
  O3     O3        0.179174096459349    0.333955651558201    0.222792138401222  0.0000
  O2     O2        0.817182959212304    0.337184072094015    0.779456403286239  0.0000
  O2     O2        0.363623440628248    0.338452221626254    0.819378385524130  0.0000
  O2     O2        0.671560086353196    0.326267277241664    0.206763415919828  0.0000
  O3     O3        0.680367950614246    0.659748252699820    0.189000755899553  0.0000
  O3     O3        0.346391237244853    0.673590134560340    0.805573319144619  0.0000
  O3     O3        0.849977120421340    0.828996627807093    0.804060250896454  0.0000
  O2     O2        0.172333682755899    0.840302243951297    0.200112701168831  0.0000
  O2     O2        0.168665897303518    0.162687464554449    0.198142712888221  0.0000
  O2     O2        0.841201343339677    0.166493363643325    0.785374249053064  0.0000
  O2     O2        0.234149621237757    0.255457630290496    0.984617318099011  0.0000
  O2     O2        0.727922457326835    0.242010470261192    0.976108531351883  0.0000
  O2     O2        0.809888086982483    0.739250066029595    0.029158945326521  0.0000
  O2     O2        0.309319807632721    0.766462436673371    0.036264837669456  0.0000
  O3     O3        0.452190072067945    0.387960205292532    0.270760401370292  0.0000
  O2     O2        0.567305109237088    0.398859764974673    0.723981603825274  0.0000
  O3     O3        0.589826987111619    0.613213073289823    0.745559289668972  0.0000
  O3     O3        0.447515307294307    0.600519442364305    0.262156782158375  0.0000
  O2     O2        0.968867841051877    0.874826301485365    0.316225829642296  0.0000
  O3     O3        0.079470534303953    0.871330019357081    0.704047594296633  0.0000
  O2     O2        0.060572009139478    0.127511554793751    0.697910642778381  0.0000
  O2     O2        0.956191131740371    0.123066872274572    0.295289564110132  0.0000
  O3     O3        0.333714425989391    0.367302272999866    0.522718786233958  0.0000
  O2     O2        0.674157252497879    0.366442317526695    0.494547257263233  0.0000
  O3     O3        0.685814284665974    0.631635602634095    0.501905833303442  0.0000
  O3     O3        0.357101784631737    0.634879934250276    0.503191244246046  0.0000
  O3     O3        0.812982681693525    0.882801509508955    0.501791807140619  0.0000
  O2     O2        0.216147611068120    0.885825746800425    0.494953978890943  0.0000
  O2     O2        0.200019412470278    0.119839080697838    0.489537791380440  0.0000
  O2     O2        0.818449725109850    0.107191486850305    0.504117976555674  0.0000
  O3     O3        0.253409534109196    0.505793810024991    0.317063102163513  0.0000
  O2     O2        0.762757886832409    0.498278099668313    0.684697137993220  0.0000
  O2     O2        0.778022983857781    0.995527063667552    0.273609618398589  0.0000
  O2     O2        0.244628454022902    0.004633453837603    0.715785574973432  0.0000
  O3     O3        0.362966189561030    0.499432562402182    0.718569532857642  0.0000
  O3     O3        0.665900455564355    0.489274361224725    0.290069348156204  0.0000
  O3     O3        0.898604833584192    0.004191859485304    0.744517129400693  0.0000
  O2     O2        0.131417004756615    0.000369093937665    0.269450798939366  0.0000
