data_c01367.vasp
_audit_creation_method             Generated by GULP
_audit_author_name                 Salvador R. G. Balestra
_symmetry_space_group_name_H-M     'P 1             '
_symmetry_Int_Tables_number        1

loop_
_symmetry_equiv_pos_site_id
_symmetry_equiv_pos_as_xyz
_cell_length_a                       10.1813
_cell_length_b                       15.2500
_cell_length_c                        8.9695
_cell_angle_alpha                   89.3265
_cell_angle_beta                   105.4875
_cell_angle_gamma                   90.3359

loop_
_atom_site_label
_atom_site_type_symbol
_atom_site_fract_x
_atom_site_fract_y
_atom_site_fract_z
_atom_site_charge
  Ge     Ge        0.306699999999978    0.397900000000050    0.331699999999955  0.0000
  Ge     Ge        0.414432469476026    0.595952603615770    0.703200405224965  0.0000
  Ge     Ge        0.123497092608530    0.896072839165054    0.325022190692483  0.0000
  Ge     Ge        0.901789877843788    0.091600851039933    0.701001424353779  0.0000
  Si     Si        0.373206549690681    0.237727785200769    0.908872037460568  0.0000
  Si     Si        0.672340175410631    0.241945819564070    0.119201863645378  0.0000
  Si     Si        0.681051861936020    0.745490314370010    0.115352867254533  0.0000
  Si     Si        0.382277591436227    0.753852463310333    0.908242537504158  0.0000
  Si     Si        0.884143777966562    0.730719155021101    0.905566524350365  0.0000
  Si     Si        0.181369808323854    0.745686641135423    0.115644649810171  0.0000
  Si     Si        0.164176048359733    0.251485646838003    0.110004814234014  0.0000
  Si     Si        0.866195070500896    0.248377876509304    0.902265902967631  0.0000
  Si     Si        0.705960521730119    0.390360443509646    0.677116924879722  0.0000
  Si     Si        0.719353267030239    0.593386631093854    0.683424518688309  0.0000
  Si     Si        0.316648751935812    0.599865786435792    0.339640765225666  0.0000
  Si     Si        0.814483154255878    0.891730208290150    0.337213307329410  0.0000
  Si     Si        0.216233680482588    0.894022586929617    0.684034930090516  0.0000
  Si     Si        0.209281637404091    0.098697352306105    0.686739659419184  0.0000
  Si     Si        0.808824189221754    0.092904246563605    0.339112269259459  0.0000
  Si     Si        0.404314029261895    0.392779991891910    0.697513020138925  0.0000
  Si     Si        0.615659653834213    0.392479267441736    0.323610426638465  0.0000
  Si     Si        0.622230873534542    0.595615986857506    0.329307173878458  0.0000
  Si     Si        0.911209321859553    0.887075576943859    0.694949177921740  0.0000
  Si     Si        0.116415817159569    0.101960826714471    0.332226506268754  0.0000
  O2     O2        0.531753766059497    0.225992094516318    0.991880601991684  0.0000
  O2     O2        0.543813002589491    0.761701771108655    0.981455101679929  0.0000
  O2     O2        0.043363033168556    0.721253344639000    0.988216260110896  0.0000
  O2     O2        0.027874467014250    0.257652328169118    0.971832745491444  0.0000
  O2     O2        0.328791174745902    0.154871690467100    0.797604983819602  0.0000
  O2     O2        0.698270260761058    0.157403468603007    0.232098523015631  0.0000
  O2     O2        0.702731639369421    0.826648006900868    0.233218797561422  0.0000
  O2     O2        0.334159469464851    0.838717039592157    0.799880923672340  0.0000
  O2     O2        0.842251513126919    0.647307390655786    0.794648580857349  0.0000
  O2     O2        0.209591144280972    0.672240226043086    0.250396198700630  0.0000
  O3     O3        0.179625504954355    0.334901288040125    0.218601105703536  0.0000
  O2     O2        0.820351531151396    0.327874756016240    0.780741644575843  0.0000
  O2     O2        0.348227054445466    0.326386212226027    0.806342225142220  0.0000
  O2     O2        0.673878971942827    0.331726594069247    0.211679797709514  0.0000
  O2     O2        0.674516703888949    0.655386875482097    0.208898456746748  0.0000
  O3     O3        0.347773801446247    0.665829980148001    0.810966110154487  0.0000
  O2     O2        0.855498399401442    0.818614085710872    0.800539152428293  0.0000
  O3     O3        0.175086546122256    0.839872672845081    0.187518606778389  0.0000
  O2     O2        0.165548321033312    0.166013930317908    0.216455224913883  0.0000
  O3     O3        0.833835907086388    0.156257321430198    0.816692435440070  0.0000
  O2     O2        0.291603582317466    0.244298762062948    0.037663592237652  0.0000
  O2     O2        0.793681237663556    0.252929634025326    0.038836225688400  0.0000
  O2     O2        0.803762424718263    0.736186396107644    0.036208572380305  0.0000
  O2     O2        0.308065666834860    0.747961810076797    0.043064709669830  0.0000
  O3     O3        0.461707449502327    0.365158762693799    0.308848835540970  0.0000
  O2     O2        0.557372694689063    0.365259403475543    0.695103077738779  0.0000
  O3     O3        0.579642850951886    0.626243924928521    0.711901699645115  0.0000
  O2     O2        0.469768895612289    0.621960289761308    0.328924348057228  0.0000
  O3     O3        0.958803627328262    0.865755916965235    0.313956977586617  0.0000
  O2     O2        0.067638124922565    0.865267747203608    0.700177214888615  0.0000
  O3     O3        0.066517975329460    0.125100390049860    0.714642320876138  0.0000
  O2     O2        0.959443293773879    0.118801765953937    0.327802935215601  0.0000
  O3     O3        0.308443818403394    0.390138267785846    0.524341216438342  0.0000
  O2     O2        0.706906032375375    0.378077376588123    0.499357653721832  0.0000
  O2     O2        0.718258416791683    0.607779755043312    0.503512594493181  0.0000
  O3     O3        0.313908499310994    0.600883685712907    0.516081391186068  0.0000
  O2     O2        0.818683075450349    0.881421166379566    0.518096913353100  0.0000
  O3     O3        0.223366970215865    0.877531390345040    0.510938184570756  0.0000
  O2     O2        0.207423948064450    0.116836136001854    0.507917296507619  0.0000
  O3     O3        0.802134469640349    0.101646445364653    0.513398990321597  0.0000
  O3     O3        0.274608797655421    0.504940736746768    0.269720234714304  0.0000
  O2     O2        0.740130513254582    0.490655801552502    0.727298216277031  0.0000
  O2     O2        0.777012326636669    0.992276626092295    0.284012451686976  0.0000
  O2     O2        0.238687328702478    0.996275549507323    0.725505930796962  0.0000
  O3     O3        0.408259473757803    0.489192909173052    0.766875003535518  0.0000
  O2     O2        0.624708305604821    0.494763987334697    0.276546526181257  0.0000
  O3     O3        0.901231988744398    0.983306570862078    0.758902849917775  0.0000
  O3     O3        0.133985825579878    0.004936384025534    0.278320211146579  0.0000
