data_c01322.vasp
_audit_creation_method             Generated by GULP
_audit_author_name                 Salvador R. G. Balestra
_symmetry_space_group_name_H-M     'P 1             '
_symmetry_Int_Tables_number        1

loop_
_symmetry_equiv_pos_site_id
_symmetry_equiv_pos_as_xyz
_cell_length_a                       10.1882
_cell_length_b                       15.3198
_cell_length_c                        8.9261
_cell_angle_alpha                   90.0180
_cell_angle_beta                   105.5541
_cell_angle_gamma                   90.2560

loop_
_atom_site_label
_atom_site_type_symbol
_atom_site_fract_x
_atom_site_fract_y
_atom_site_fract_z
_atom_site_charge
  Ge     Ge        0.306699999999978    0.397900000000050    0.331699999999955  0.0000
  Ge     Ge        0.409655420551811    0.401450944503304    0.714646753344023  0.0000
  Ge     Ge        0.618609909768049    0.396694139443950    0.326493439576611  0.0000
  Ge     Ge        0.903337048321501    0.100511656024137    0.695095345991983  0.0000
  Si     Si        0.374871464648207    0.242937281466485    0.915494486899922  0.0000
  Si     Si        0.679961955695771    0.243371884578250    0.116613955561780  0.0000
  Si     Si        0.674964098207208    0.752455274184570    0.120500665608526  0.0000
  Si     Si        0.380520374196673    0.763248950671339    0.907746462138346  0.0000
  Si     Si        0.879423012944007    0.741297183388243    0.911486209648982  0.0000
  Si     Si        0.179040800060874    0.748521364449334    0.120103262721061  0.0000
  Si     Si        0.168161363536546    0.246880548978835    0.115321005920894  0.0000
  Si     Si        0.874721838951106    0.257296788802956    0.900885576809231  0.0000
  Si     Si        0.711111560681282    0.401606655767649    0.697776286259702  0.0000
  Si     Si        0.713470931836552    0.602901680603290    0.683694353463434  0.0000
  Si     Si        0.313253792146657    0.598896052708550    0.343067207454230  0.0000
  Si     Si        0.818852031983358    0.895027781835168    0.345533349879268  0.0000
  Si     Si        0.215020257101442    0.901889857322721    0.687452267338545  0.0000
  Si     Si        0.213260750552164    0.104723139694628    0.684016650165877  0.0000
  Si     Si        0.808108250333063    0.093496194805513    0.333013093068358  0.0000
  Si     Si        0.621129779642622    0.598348123867882    0.328153551500991  0.0000
  Si     Si        0.410055564874707    0.605381988034872    0.702998694510649  0.0000
  Si     Si        0.914516076082804    0.897323843358749    0.707121073676570  0.0000
  Si     Si        0.120507333854877    0.897227831686286    0.330690164454768  0.0000
  Si     Si        0.116109939760724    0.098016448875646    0.329676694072774  0.0000
  O2     O2        0.536522451868056    0.236416948585445    0.988549651098426  0.0000
  O2     O2        0.538537764035885    0.777808476961373    0.991937578772055  0.0000
  O2     O2        0.037346679687179    0.726885972409259    0.996214024756548  0.0000
  O2     O2        0.037284133863118    0.258541609502704    0.970241103440555  0.0000
  O2     O2        0.331492103452334    0.164659961289046    0.790544102224739  0.0000
  O2     O2        0.699514310179839    0.154294420624044    0.216725011886112  0.0000
  O2     O2        0.706779047564090    0.827946921867849    0.250338550078336  0.0000
  O2     O2        0.335263169446454    0.845070509607171    0.793893042695259  0.0000
  O2     O2        0.830954493119273    0.661644595621186    0.792413190808624  0.0000
  O2     O2        0.213752847517338    0.669590145298633    0.241333573379082  0.0000
  O3     O3        0.181051865338622    0.327901291343788    0.229886162865001  0.0000
  O2     O2        0.836292661050967    0.343194714492675    0.794261300452590  0.0000
  O3     O3        0.341145545551767    0.335011040171017    0.829692310133955  0.0000
  O3     O3        0.694260573268044    0.326216306451778    0.227493042206185  0.0000
  O2     O2        0.657694348711107    0.661868852923588    0.203212687439742  0.0000
  O2     O2        0.357589471670589    0.673991095964829    0.809122064864760  0.0000
  O2     O2        0.857685987472054    0.831262434133223    0.814554860574493  0.0000
  O2     O2        0.174356243233580    0.838110776982697    0.212440331227440  0.0000
  O2     O2        0.160822267060543    0.156969224075461    0.205338159442527  0.0000
  O3     O3        0.832374030324733    0.170424694548160    0.800334784431706  0.0000
  O2     O2        0.300855323971563    0.237176137143900    0.052169193346202  0.0000
  O2     O2        0.802274318132251    0.255215964760991    0.038091856736109  0.0000
  O2     O2        0.796644110826842    0.743721906701979    0.039995796899216  0.0000
  O2     O2        0.297288827921342    0.758602529410912    0.035335821529991  0.0000
  O1     O1        0.445947822647083    0.387142712625228    0.260670470417242  0.0000
  O3     O3        0.585276275609419    0.391601545416752    0.771552281251176  0.0000
  O2     O2        0.573317695016670    0.614082198013187    0.732499257440674  0.0000
  O2     O2        0.458498878578702    0.593093250197206    0.303141166152416  0.0000
  O2     O2        0.964292219204923    0.872430366229762    0.316753679836912  0.0000
  O2     O2        0.072334183976399    0.875402929252967    0.720773748293575  0.0000
  O3     O3        0.069467875996859    0.130858591908690    0.709480707812538  0.0000
  O2     O2        0.960751018852186    0.117205006737920    0.326052236617340  0.0000
  O1     O1        0.346384898416741    0.372334356512555    0.525076851620863  0.0000
  O3     O3        0.664708625565678    0.370131530990699    0.520979902163420  0.0000
  O2     O2        0.692901669732147    0.630673256323238    0.504197698539214  0.0000
  O2     O2        0.336250547555104    0.624815873861256    0.523025405024957  0.0000
  O2     O2        0.827368017101928    0.888027149497963    0.527689861521693  0.0000
  O2     O2        0.209140823114413    0.883134633738942    0.507860496835719  0.0000
  O2     O2        0.209980704020813    0.118755805230062    0.502953769290221  0.0000
  O3     O3        0.801712894022155    0.107851559327301    0.507283278086287  0.0000
  O3     O3        0.246529415960358    0.504167592489506    0.311553829610572  0.0000
  O2     O2        0.760194111609217    0.502442191440516    0.703922937612021  0.0000
  O2     O2        0.774423806047168    0.992436795795009    0.285302356882728  0.0000
  O2     O2        0.245141300048809    0.003476152304499    0.727953350138086  0.0000
  O3     O3        0.371671903699885    0.509110467967929    0.744523383678564  0.0000
  O3     O3        0.670613074048095    0.502402510690672    0.301873535451139  0.0000
  O3     O3        0.900880912500345    0.994910931510239    0.762385127327516  0.0000
  O2     O2        0.132954233703541    0.997773920194997    0.283626043499495  0.0000
