data_c01347.vasp
_audit_creation_method             Generated by GULP
_audit_author_name                 Salvador R. G. Balestra
_symmetry_space_group_name_H-M     'P 1             '
_symmetry_Int_Tables_number        1

loop_
_symmetry_equiv_pos_site_id
_symmetry_equiv_pos_as_xyz
_cell_length_a                       10.1898
_cell_length_b                       15.2281
_cell_length_c                        8.9861
_cell_angle_alpha                   89.5978
_cell_angle_beta                   105.4008
_cell_angle_gamma                   90.0719

loop_
_atom_site_label
_atom_site_type_symbol
_atom_site_fract_x
_atom_site_fract_y
_atom_site_fract_z
_atom_site_charge
  Ge     Ge        0.306699999999978    0.397900000000050    0.331699999999955  0.0000
  Ge     Ge        0.621748150427111    0.392345889966569    0.313422281370468  0.0000
  Ge     Ge        0.915524592828220    0.893315467403335    0.688224347748906  0.0000
  Ge     Ge        0.131849849361024    0.898203665312085    0.316622739360257  0.0000
  Si     Si        0.356656346834053    0.244723819102734    0.902363314831864  0.0000
  Si     Si        0.653238289593486    0.234766589387688    0.106850569798539  0.0000
  Si     Si        0.684200014911985    0.749600271049116    0.108412219689031  0.0000
  Si     Si        0.387469024226028    0.754218220359091    0.896575602925339  0.0000
  Si     Si        0.885247143651310    0.735136040205883    0.900532538493536  0.0000
  Si     Si        0.184238183458823    0.745942489645972    0.104624337452860  0.0000
  Si     Si        0.147049218265647    0.257471058377686    0.104873818860213  0.0000
  Si     Si        0.847572549209624    0.246179122588348    0.891284981260704  0.0000
  Si     Si        0.714628057728045    0.396147417639773    0.670361958232848  0.0000
  Si     Si        0.720081129020976    0.596864981269779    0.675762675498482  0.0000
  Si     Si        0.321252018144218    0.603700220605291    0.335030004709108  0.0000
  Si     Si        0.822690340736107    0.894354199822194    0.329798192362944  0.0000
  Si     Si        0.226976346490985    0.897433665618341    0.674590991315074  0.0000
  Si     Si        0.214071948372303    0.101118387767694    0.675393897451681  0.0000
  Si     Si        0.822461278361736    0.096381512166046    0.328392854470693  0.0000
  Si     Si        0.408676961472427    0.398213488088247    0.689222559845051  0.0000
  Si     Si        0.623490223342191    0.599488501617318    0.319234627719814  0.0000
  Si     Si        0.418382470020835    0.599263389663730    0.691633405384347  0.0000
  Si     Si        0.123946796998641    0.104577827659190    0.318300395893917  0.0000
  Si     Si        0.911831363560316    0.097414210871074    0.686124604617126  0.0000
  O2     O2        0.492638680172589    0.221638217973930    0.033258075878667  0.0000
  O2     O2        0.546271431272530    0.765368403099187    0.976955274953436  0.0000
  O2     O2        0.045050116666232    0.722310118670193    0.978946395114392  0.0000
  O2     O2        0.989392871751341    0.257162085585210    0.016220432501578  0.0000
  O2     O2        0.325232551914978    0.165880845345143    0.779263965986927  0.0000
  O2     O2        0.701134368512117    0.156879115438494    0.231628080056240  0.0000
  O2     O2        0.709884382452831    0.835339394466802    0.215139797480824  0.0000
  O2     O2        0.342467428677029    0.839246051980717    0.788898657711528  0.0000
  O2     O2        0.838117830214724    0.657521625863200    0.777011394531420  0.0000
  O2     O2        0.212309802512499    0.674728511685283    0.243502379136801  0.0000
  O3     O3        0.174543269731064    0.340844853825193    0.213821541634538  0.0000
  O2     O2        0.818395818869190    0.334326779863425    0.789796851948136  0.0000
  O2     O2        0.375295002784554    0.335967024267740    0.818544419373199  0.0000
  O3     O3        0.683074535467882    0.327563909431940    0.190967860881473  0.0000
  O2     O2        0.680833969894629    0.663925141889653    0.211181111820066  0.0000
  O2     O2        0.360964709274825    0.665038806099395    0.797242381274091  0.0000
  O3     O3        0.858242953001362    0.827475193479390    0.812440314264855  0.0000
  O3     O3        0.179117854894915    0.841076954881802    0.175958006827809  0.0000
  O2     O2        0.184029607181366    0.170814446175455    0.213408198095431  0.0000
  O2     O2        0.845903874921131    0.163295627203525    0.782593870179567  0.0000
  O2     O2        0.235631196462832    0.258506516847110    0.981969910297413  0.0000
  O2     O2        0.728471888994385    0.228896485218840    0.972579121012866  0.0000
  O2     O2        0.806864144610076    0.733029235466521    0.032254669788570  0.0000
  O2     O2        0.306425176085149    0.745151628007379    0.024723433946657  0.0000
  O1     O1        0.457013979500221    0.363889341924292    0.301539667543858  0.0000
  O2     O2        0.557973375923512    0.378036404494233    0.668219985323738  0.0000
  O2     O2        0.575952920106840    0.622089934389785    0.706393469288436  0.0000
  O2     O2        0.468354805233946    0.624708329165960    0.309071054084607  0.0000
  O3     O3        0.971728414880841    0.865795122140400    0.321646232379641  0.0000
  O3     O3        0.080416045609508    0.867435753116703    0.689897661435852  0.0000
  O2     O2        0.067963199163012    0.124298837280736    0.701403447170785  0.0000
  O2     O2        0.965884009065912    0.128154166256992    0.302997115751923  0.0000
  O3     O3        0.305128687523326    0.384966248902960    0.523378109939444  0.0000
  O3     O3        0.725084560239436    0.379690505434675    0.499288342983406  0.0000
  O2     O2        0.713653447040823    0.609902071897110    0.495874549930670  0.0000
  O2     O2        0.329199280873070    0.611384203202743    0.516158047125413  0.0000
  O3     O3        0.812118811585271    0.882814988166317    0.503021464913969  0.0000
  O3     O3        0.236814591218351    0.885277977451667    0.501060250239735  0.0000
  O2     O2        0.210568503849459    0.115274715946801    0.496452471833154  0.0000
  O2     O2        0.825677920997896    0.102800578982611    0.507785576433801  0.0000
  O3     O3        0.277325946171025    0.506941642434632    0.279202275448900  0.0000
  O2     O2        0.755288552153277    0.495862727202780    0.722706411841378  0.0000
  O2     O2        0.796691993299375    0.995797416078367    0.275174220537980  0.0000
  O2     O2        0.250839518531488    0.000038163543855    0.722010854058963  0.0000
  O2     O2        0.403557226195369    0.499033654510217    0.745292282988268  0.0000
  O3     O3        0.630278533850431    0.501313840411783    0.262020528319117  0.0000
  O3     O3        0.906714211449111    0.999903754332810    0.749020284496114  0.0000
  O3     O3        0.135760468742342    0.006914795322711    0.262653500243414  0.0000
