data_c01355.vasp
_audit_creation_method             Generated by GULP
_audit_author_name                 Salvador R. G. Balestra
_symmetry_space_group_name_H-M     'P 1             '
_symmetry_Int_Tables_number        1

loop_
_symmetry_equiv_pos_site_id
_symmetry_equiv_pos_as_xyz
_cell_length_a                       10.2197
_cell_length_b                       15.2270
_cell_length_c                        8.9755
_cell_angle_alpha                   90.3311
_cell_angle_beta                   105.4902
_cell_angle_gamma                   89.9308

loop_
_atom_site_label
_atom_site_type_symbol
_atom_site_fract_x
_atom_site_fract_y
_atom_site_fract_z
_atom_site_charge
  Ge     Ge        0.306699999999978    0.397900000000050    0.331699999999955  0.0000
  Ge     Ge        0.620276830288462    0.598961674391580    0.308591594230837  0.0000
  Ge     Ge        0.410921391127993    0.608030090169998    0.688606089509945  0.0000
  Ge     Ge        0.110588471710021    0.104007349210980    0.309110220012492  0.0000
  Si     Si        0.345242492132805    0.252646955087518    0.900411752185343  0.0000
  Si     Si        0.640279533167579    0.237905015301250    0.105952788270895  0.0000
  Si     Si        0.675854866832311    0.754677283922529    0.099781955014030  0.0000
  Si     Si        0.374658311032398    0.765053205281822    0.899059848941946  0.0000
  Si     Si        0.879977742995341    0.746536907661292    0.892488357096766  0.0000
  Si     Si        0.175615131352876    0.749248630513147    0.107872310944664  0.0000
  Si     Si        0.136758597919053    0.260040485096512    0.099516917547045  0.0000
  Si     Si        0.837123296629492    0.252592410534023    0.890196687486164  0.0000
  Si     Si        0.705042960572563    0.402798397402278    0.671711452909633  0.0000
  Si     Si        0.717146322358724    0.603588775354668    0.675540810739727  0.0000
  Si     Si        0.314409679980309    0.603456360813101    0.325569548490754  0.0000
  Si     Si        0.815275222717433    0.896104044584415    0.331415529295301  0.0000
  Si     Si        0.211296130609060    0.905997316624662    0.677042135261432  0.0000
  Si     Si        0.202736412099830    0.107986794063497    0.671331973924907  0.0000
  Si     Si        0.804208599642247    0.098805743921751    0.323852181172263  0.0000
  Si     Si        0.403484141557013    0.402806288630059    0.690951844254521  0.0000
  Si     Si        0.614106424975534    0.394680330342118    0.312739839610783  0.0000
  Si     Si        0.908178217434740    0.901204127410400    0.686313741970138  0.0000
  Si     Si        0.117002607492379    0.898262131978135    0.320251086189579  0.0000
  Si     Si        0.897630671102610    0.102612982187714    0.679744037050189  0.0000
  O2     O2        0.480498281683166    0.227487654185844    0.029940825520040  0.0000
  O2     O2        0.535111797057964    0.774871158119296    0.974830032447828  0.0000
  O2     O2        0.037999726189417    0.734961668577281    0.975238098017864  0.0000
  O2     O2        0.977691580228112    0.267185546124573    0.017072355179751  0.0000
  O2     O2        0.310935962920429    0.172283454969478    0.780167932065246  0.0000
  O2     O2        0.682157247441710    0.153923083403890    0.215823792118362  0.0000
  O2     O2        0.702306868444199    0.831201372353985    0.230263311440754  0.0000
  O2     O2        0.328215431967750    0.846481937009551    0.782934360624548  0.0000
  O2     O2        0.837377677178473    0.663726094813544    0.778206684710314  0.0000
  O2     O2        0.199741335168819    0.664107433265547    0.215880610348095  0.0000
  O3     O3        0.173957603291927    0.336504100410809    0.225780904715519  0.0000
  O2     O2        0.811505562894610    0.336174614918116    0.777191618824275  0.0000
  O2     O2        0.364341440067349    0.342686185646035    0.817736945015511  0.0000
  O2     O2        0.672595263274956    0.325758802545751    0.210233577839288  0.0000
  O3     O3        0.676400684111173    0.661784473678296    0.181038247660056  0.0000
  O3     O3        0.344684289282102    0.674829876088352    0.804441849027512  0.0000
  O2     O2        0.853757808315039    0.837266349993310    0.797022209423472  0.0000
  O2     O2        0.174567490774638    0.834409729218465    0.212375020203660  0.0000
  O3     O3        0.169979779680925    0.167009111903333    0.183954686953331  0.0000
  O2     O2        0.839929701538997    0.164103917031379    0.792180851071185  0.0000
  O2     O2        0.223154831161105    0.270504395652373    0.976293170227073  0.0000
  O2     O2        0.717397122863873    0.241584727519661    0.972514312568810  0.0000
  O2     O2        0.796700266974801    0.752941485651344    0.018487950444525  0.0000
  O2     O2        0.299110347408908    0.765120713701398    0.033192923123119  0.0000
  O3     O3        0.451173117392445    0.387592478228244    0.268943534259720  0.0000
  O2     O2        0.566542064569010    0.404483779906757    0.723094944230175  0.0000
  O3     O3        0.585888849412223    0.615736642983159    0.738796674358530  0.0000
  O3     O3        0.446372359411930    0.603275937865539    0.261087772972374  0.0000
  O2     O2        0.961713050457103    0.872569157036388    0.307909349103174  0.0000
  O2     O2        0.066314721508512    0.880764300339988    0.704006816359797  0.0000
  O2     O2        0.052641400364494    0.127789508752381    0.690299296932447  0.0000
  O3     O3        0.943384810928120    0.130340031669229    0.293257474921961  0.0000
  O3     O3        0.336291573156060    0.365101986943442    0.521751687683539  0.0000
  O2     O2        0.673801812245185    0.371840147141104    0.494185306256252  0.0000
  O3     O3        0.686957400357987    0.631276102756580    0.497760751689435  0.0000
  O3     O3        0.353351716444043    0.640497306762612    0.499113060798450  0.0000
  O2     O2        0.820145728183849    0.884036074362607    0.510955909926226  0.0000
  O2     O2        0.206276803613834    0.890426035278396    0.497796905087681  0.0000
  O3     O3        0.204660454755148    0.122992261216050    0.496740407944233  0.0000
  O2     O2        0.808377681674590    0.113800177495134    0.503631472974767  0.0000
  O3     O3        0.256640228407961    0.506031194800514    0.323595414350697  0.0000
  O2     O2        0.765495133573518    0.501442454315467    0.689951186640190  0.0000
  O2     O2        0.778355059780507    0.996177919890941    0.280768919554142  0.0000
  O2     O2        0.244240497561893    0.007739604091053    0.720320409752177  0.0000
  O3     O3        0.357839260008381    0.502134806487929    0.708259195231592  0.0000
  O3     O3        0.662389285144243    0.490901732147503    0.282799875758561  0.0000
  O2     O2        0.889826781795922    0.002030044658886    0.733574136693810  0.0000
  O3     O3        0.125210300246066    0.995875503529371    0.261026106876577  0.0000
