data_c01384.vasp
_audit_creation_method             Generated by GULP
_audit_author_name                 Salvador R. G. Balestra
_symmetry_space_group_name_H-M     'P 1             '
_symmetry_Int_Tables_number        1

loop_
_symmetry_equiv_pos_site_id
_symmetry_equiv_pos_as_xyz
_cell_length_a                       10.1934
_cell_length_b                       15.2623
_cell_length_c                        8.9797
_cell_angle_alpha                   89.9998
_cell_angle_beta                   105.5260
_cell_angle_gamma                   90.0000

loop_
_atom_site_label
_atom_site_type_symbol
_atom_site_fract_x
_atom_site_fract_y
_atom_site_fract_z
_atom_site_charge
  Ge     Ge        0.403900000000021    0.397900000000050    0.686299999999960  0.0000
  Ge     Ge        0.621294946104409    0.600926615600636    0.311868322778226  0.0000
  Ge     Ge        0.121293356286034    0.897902606339801    0.311865161357113  0.0000
  Ge     Ge        0.903902143370340    0.100924177080257    0.686303396712778  0.0000
  Si     Si        0.372907955907379    0.241445179193437    0.895806533373006  0.0000
  Si     Si        0.672271020583775    0.244954218801183    0.104261290871181  0.0000
  Si     Si        0.652287573586099    0.757381603424501    0.102362479659185  0.0000
  Si     Si        0.352924695256362    0.753872552606614    0.893907837530332  0.0000
  Si     Si        0.852924013158183    0.744953088320031    0.893907786055136  0.0000
  Si     Si        0.152287406513733    0.741447520633706    0.102362275104739  0.0000
  Si     Si        0.172271082678943    0.253873851463553    0.104260501518136  0.0000
  Si     Si        0.872907866942581    0.257379058615202    0.895806553928441  0.0000
  Si     Si        0.311093053114939    0.400229088721286    0.325249964869214  0.0000
  Si     Si        0.711925320382955    0.396640065162169    0.672689910942980  0.0000
  Si     Si        0.714102302667194    0.598597419748879    0.672918437857809  0.0000
  Si     Si        0.313269405805087    0.602186645197766    0.325479267758636  0.0000
  Si     Si        0.813269330316472    0.896642666571493    0.325476627171719  0.0000
  Si     Si        0.214101558647909    0.900226828575867    0.672914832933045  0.0000
  Si     Si        0.211926324933516    0.102184100158222    0.672692237722874  0.0000
  Si     Si        0.811093549553778    0.098599561595253    0.325253821022233  0.0000
  Si     Si        0.616401182853230    0.395907291893183    0.317031226166130  0.0000
  Si     Si        0.408793609836344    0.602919230868662    0.681137722763743  0.0000
  Si     Si        0.908794815562748    0.895905229145934    0.681134830977344  0.0000
  Si     Si        0.116400977451483    0.102921696432814    0.317034174355971  0.0000
  O2     O2        0.533338518563414    0.232143523883513    0.972691315095311  0.0000
  O2     O2        0.491857233667973    0.766684353124682    0.025477509498745  0.0000
  O2     O2        0.991857171259575    0.732143758812620    0.025477570889816  0.0000
  O2     O2        0.033338086246284    0.266682948770935    0.972690511813574  0.0000
  O2     O2        0.331867549330176    0.162751518242875    0.772689092383516  0.0000
  O2     O2        0.699765042054929    0.158091148520310    0.209092793887096  0.0000
  O2     O2        0.693328477790456    0.836074379839894    0.225481572686982  0.0000
  O2     O2        0.325430273758845    0.840735289631623    0.789075537205158  0.0000
  O2     O2        0.825429597237246    0.658087702077201    0.789083043653243  0.0000
  O2     O2        0.193329391688634    0.662755905495344    0.225484393439429  0.0000
  O2     O2        0.199765285109621    0.340739142703995    0.209085440225106  0.0000
  O2     O2        0.831865013201032    0.336070498669551    0.772684362597236  0.0000
  O3     O3        0.341362989115410    0.333354000988494    0.807711973126865  0.0000
  O2     O2        0.668061326353986    0.328965732023064    0.209235148411331  0.0000
  O3     O3        0.683831196845524    0.665472147303241    0.190455245360760  0.0000
  O2     O2        0.357134932981669    0.669860594078225    0.788935179457724  0.0000
  O2     O2        0.857132118188360    0.828962093045934    0.788926808447374  0.0000
  O3     O3        0.183829312169699    0.833358020823134    0.190451032416032  0.0000
  O2     O2        0.168062348223440    0.169864811228037    0.209241113112483  0.0000
  O3     O3        0.841366118084593    0.165468625559235    0.807717731490725  0.0000
  O2     O2        0.293725216426194    0.235904973928968    0.026741575186602  0.0000
  O2     O2        0.793725532383502    0.262920259584316    0.026741705445791  0.0000
  O2     O2        0.731470548519031    0.762922395901175    0.971427626201501  0.0000
  O2     O2        0.231470407500003    0.735906082899044    0.971427594555303  0.0000
  O2     O2        0.461576515123189    0.374048163026883    0.315194937388904  0.0000
  O3     O3        0.569475345213334    0.367353575946071    0.699030323938123  0.0000
  O2     O2        0.563618302779771    0.624778090574865    0.682972945577025  0.0000
  O3     O3        0.455719648829278    0.631473419279160    0.299138824144590  0.0000
  O3     O3        0.955719204894749    0.867354356950672    0.299137940643457  0.0000
  O2     O2        0.063617969201414    0.874043237250142    0.682967435565652  0.0000
  O3     O3        0.069476200190470    0.131472739128218    0.699030226029130  0.0000
  O2     O2        0.961577588091719    0.124782941761865    0.315202333194775  0.0000
  O3     O3        0.303874127954974    0.386537406832235    0.498856633495599  0.0000
  O2     O2        0.709382589495589    0.387211582079653    0.492748385125851  0.0000
  O3     O3        0.721321767551164    0.612289249163592    0.499311542017455  0.0000
  O2     O2        0.315811161774037    0.611615575703305    0.505420831472096  0.0000
  O2     O2        0.815810938253653    0.887214804081562    0.505418010691626  0.0000
  O3     O3        0.221321807367001    0.886539864334859    0.499307478170244  0.0000
  O2     O2        0.209385602063503    0.111612949381313    0.492750858314346  0.0000
  O3     O3        0.803873040240533    0.112286392384355    0.498861229602715  0.0000
  O2     O2        0.282533739784139    0.501322569661673    0.274664805143237  0.0000
  O2     O2        0.742661989329458    0.497504013606916    0.723504451527972  0.0000
  O2     O2        0.782536236608916    0.997506956658651    0.274661278498277  0.0000
  O2     O2        0.242658646192927    0.001319554544830    0.723506641243771  0.0000
  O3     O3        0.398799216588203    0.505723857917167    0.742407172163563  0.0000
  O3     O3        0.626395201967552    0.493102529579654    0.255761300919952  0.0000
  O3     O3        0.898806779406045    0.993099660323810    0.742410825401503  0.0000
  O3     O3        0.126389991384483    0.005727190772989    0.255758472258498  0.0000
