data_c01378.vasp
_audit_creation_method             Generated by GULP
_audit_author_name                 Salvador R. G. Balestra
_symmetry_space_group_name_H-M     'P 1             '
_symmetry_Int_Tables_number        1

loop_
_symmetry_equiv_pos_site_id
_symmetry_equiv_pos_as_xyz
_cell_length_a                       10.2189
_cell_length_b                       15.2148
_cell_length_c                        9.0158
_cell_angle_alpha                   90.1621
_cell_angle_beta                   105.6870
_cell_angle_gamma                   90.1473

loop_
_atom_site_label
_atom_site_type_symbol
_atom_site_fract_x
_atom_site_fract_y
_atom_site_fract_z
_atom_site_charge
  Ge     Ge        0.403900000000021    0.397900000000050    0.686299999999960  0.0000
  Ge     Ge        0.620018623045304    0.396097358510719    0.316279173457985  0.0000
  Ge     Ge        0.903902084845833    0.897900922437790    0.686299576462013  0.0000
  Ge     Ge        0.120018298296299    0.896097759111306    0.316280018414744  0.0000
  Si     Si        0.351206223497247    0.243502277752829    0.898890947240624  0.0000
  Si     Si        0.651586885443562    0.238804992318461    0.103187201475055  0.0000
  Si     Si        0.649313936209408    0.754908258145668    0.106776595649974  0.0000
  Si     Si        0.351211305313167    0.754195313500882    0.894547659223062  0.0000
  Si     Si        0.851204656889734    0.743504505197027    0.898889919934890  0.0000
  Si     Si        0.151585767613116    0.738805888002756    0.103186583833633  0.0000
  Si     Si        0.149314456249599    0.254907082073343    0.106775989861438  0.0000
  Si     Si        0.851211335108214    0.254193635393308    0.894546686132791  0.0000
  Si     Si        0.310978264463462    0.395994443381742    0.328983397568704  0.0000
  Si     Si        0.714453491605100    0.399894779514273    0.674716230736832  0.0000
  Si     Si        0.708490729009491    0.601842087396923    0.670963307549624  0.0000
  Si     Si        0.315809405131472    0.600015148509821    0.327685453009047  0.0000
  Si     Si        0.810979200191597    0.895995701290275    0.328983318395644  0.0000
  Si     Si        0.214451179055774    0.899894609053846    0.674715917157930  0.0000
  Si     Si        0.208489520510116    0.101842168610935    0.670962360108104  0.0000
  Si     Si        0.815811248547517    0.100014261791162    0.327686078918882  0.0000
  Si     Si        0.615899354269668    0.601740897148892    0.314683865278792  0.0000
  Si     Si        0.406959727589281    0.604170202420213    0.682593285224546  0.0000
  Si     Si        0.115900298532748    0.101740589849121    0.314685245866074  0.0000
  Si     Si        0.906962647203995    0.104169991398831    0.682592691567612  0.0000
  O2     O2        0.492433496734073    0.224982346786547    0.024090871517719  0.0000
  O2     O2        0.491027039730199    0.765485405049783    0.024543526724773  0.0000
  O2     O2        0.992432098853796    0.724985066293967    0.024089840860315  0.0000
  O2     O2        0.991027582389425    0.265482925117595    0.024541885022329  0.0000
  O2     O2        0.323725603816202    0.167146043673233    0.768795701534338  0.0000
  O2     O2        0.697708777262102    0.159413664254821    0.223369131565323  0.0000
  O2     O2        0.694201686639239    0.840883668521918    0.210974599201218  0.0000
  O2     O2        0.327527692488525    0.841671824432667    0.791331918134476  0.0000
  O2     O2        0.823724051350265    0.667148233600201    0.768794861888133  0.0000
  O2     O2        0.197706381733763    0.659412945495065    0.223365383689684  0.0000
  O2     O2        0.194201438166056    0.340883619813551    0.210971254835716  0.0000
  O2     O2        0.827527546154277    0.341670368904595    0.791331851043670  0.0000
  O3     O3        0.353162762454293    0.337042456622531    0.819988415993077  0.0000
  O3     O3        0.678274648295099    0.330700497918934    0.193120166710680  0.0000
  O2     O2        0.676529120911715    0.668527320140738    0.213343421029815  0.0000
  O2     O2        0.349698200161098    0.670027019977328    0.787280598697152  0.0000
  O3     O3        0.853160081320487    0.837044348307466    0.819985970624053  0.0000
  O3     O3        0.178275227946684    0.830700433897961    0.193122482786632  0.0000
  O2     O2        0.176530184903046    0.168527164740218    0.213345235096043  0.0000
  O2     O2        0.849696731267342    0.170025842598247    0.787277836731765  0.0000
  O2     O2        0.230873996841043    0.243737409753025    0.980473010365918  0.0000
  O2     O2        0.729939684143133    0.238747503942907    0.972304679272814  0.0000
  O2     O2        0.730872939450051    0.743739989206181    0.980472769043451  0.0000
  O2     O2        0.229938635193898    0.738749656905335    0.972304215213743  0.0000
  O3     O3        0.457147685036129    0.365838184519747    0.314647542278287  0.0000
  O3     O3        0.566452400142872    0.370731816934800    0.684817666457490  0.0000
  O2     O2        0.563090171520771    0.628336924279328    0.694102605514237  0.0000
  O2     O2        0.460124855793797    0.627998921707086    0.302198427830143  0.0000
  O3     O3        0.957148666356717    0.865837150835192    0.314651758979052  0.0000
  O3     O3        0.066451239439664    0.870726756600979    0.684813309595046  0.0000
  O2     O2        0.063088838994492    0.128343554456464    0.694093428963003  0.0000
  O2     O2        0.960127730222414    0.128000625742061    0.302205696064195  0.0000
  O3     O3        0.300990451991506    0.382709738306144    0.501552303007669  0.0000
  O3     O3        0.723691182774668    0.387469515157117    0.501750271911381  0.0000
  O2     O2        0.705189885002764    0.609555033829464    0.491970972823556  0.0000
  O2     O2        0.317678685729400    0.613521997858967    0.505590971238653  0.0000
  O3     O3        0.800989630386943    0.882716399440974    0.501552397513255  0.0000
  O3     O3        0.223692182472656    0.887472518769046    0.501750887763160  0.0000
  O2     O2        0.205194192321427    0.109551736991287    0.491971332536624  0.0000
  O2     O2        0.817677047932675    0.113514276471709    0.505591570628284  0.0000
  O2     O2        0.288241545843889    0.498343992040144    0.282181698679963  0.0000
  O2     O2        0.742018069085958    0.501901997362135    0.725709348570633  0.0000
  O2     O2        0.788246266211056    0.998344197213656    0.282173552110402  0.0000
  O2     O2        0.242006386718200    0.001901921172878    0.725711382334778  0.0000
  O3     O3        0.396340779169868    0.506315642305120    0.740161356718361  0.0000
  O3     O3        0.623084721567829    0.503624098064248    0.255487351268962  0.0000
  O3     O3        0.896357565160710    0.006316086404847    0.740168018594478  0.0000
  O3     O3        0.123080836679585    0.003624168600346    0.255485629018890  0.0000
