data_c01382.vasp
_audit_creation_method             Generated by GULP
_audit_author_name                 Salvador R. G. Balestra
_symmetry_space_group_name_H-M     'P 1             '
_symmetry_Int_Tables_number        1

loop_
_symmetry_equiv_pos_site_id
_symmetry_equiv_pos_as_xyz
_cell_length_a                       10.2068
_cell_length_b                       15.2643
_cell_length_c                        8.9904
_cell_angle_alpha                   90.7047
_cell_angle_beta                   105.5720
_cell_angle_gamma                   89.5125

loop_
_atom_site_label
_atom_site_type_symbol
_atom_site_fract_x
_atom_site_fract_y
_atom_site_fract_z
_atom_site_charge
  Ge     Ge        0.403900000000021    0.397900000000050    0.686299999999960  0.0000
  Ge     Ge        0.616658263409282    0.598865426543391    0.311579514949588  0.0000
  Ge     Ge        0.903909357805828    0.897903809404534    0.686295832556675  0.0000
  Ge     Ge        0.116661089816996    0.098861741640216    0.311585998580082  0.0000
  Si     Si        0.348858908009487    0.244207296393772    0.895548148695497  0.0000
  Si     Si        0.647768223535655    0.239254792565303    0.106312664717696  0.0000
  Si     Si        0.648869975523722    0.755353958358982    0.103561843260575  0.0000
  Si     Si        0.350114623581809    0.754736076578558    0.896615662570502  0.0000
  Si     Si        0.848854216021168    0.744217304316492    0.895545800028732  0.0000
  Si     Si        0.147763513283464    0.739258816846760    0.106314147471230  0.0000
  Si     Si        0.148870772258440    0.255348280598948    0.103561442222897  0.0000
  Si     Si        0.850113880758727    0.254728513758088    0.896605883221492  0.0000
  Si     Si        0.311930595518288    0.396900560407148    0.327425887100874  0.0000
  Si     Si        0.711407970019494    0.397991722879883    0.674434932692008  0.0000
  Si     Si        0.710821227451007    0.599261250799288    0.672093837397067  0.0000
  Si     Si        0.310896040900556    0.600288312050011    0.326967345546085  0.0000
  Si     Si        0.811938220189252    0.896905643187422    0.327427265668544  0.0000
  Si     Si        0.211398922755803    0.897990243237627    0.674433223206748  0.0000
  Si     Si        0.210812675443025    0.099259803364673    0.672090448722095  0.0000
  Si     Si        0.810905390356847    0.100283583011479    0.326964373019937  0.0000
  Si     Si        0.616396579463906    0.393975078589628    0.317776014340973  0.0000
  Si     Si        0.405742708152266    0.603718402731837    0.682215883726038  0.0000
  Si     Si        0.116400063149679    0.893975104445730    0.317786497251927  0.0000
  Si     Si        0.905754163434537    0.103716683743473    0.682209531651591  0.0000
  O2     O2        0.489612098604977    0.228244263480359    0.022796726620776  0.0000
  O2     O2        0.488543971288822    0.767435596933993    0.029225946003825  0.0000
  O2     O2        0.989605137969698    0.728258860834839    0.022800208051421  0.0000
  O2     O2        0.988545190738642    0.267421362009178    0.029214930567895  0.0000
  O2     O2        0.324665225282559    0.162355547851976    0.776672746466061  0.0000
  O2     O2        0.690431814012751    0.156536060580902    0.217780848231695  0.0000
  O2     O2        0.697312798821498    0.838582892808738    0.214766324156487  0.0000
  O2     O2        0.327583518513170    0.837321263455306    0.782128329786026  0.0000
  O2     O2        0.824662668127498    0.662363654495526    0.776675745749212  0.0000
  O2     O2        0.190421607447801    0.656534375383552    0.217769832958391  0.0000
  O2     O2        0.197303017894267    0.338586021452295    0.214749116654101  0.0000
  O2     O2        0.827585190917885    0.337314348900357    0.782120813471392  0.0000
  O3     O3        0.346355788799037    0.335364218203684    0.810766354026819  0.0000
  O2     O2        0.673211120182177    0.327470480029455    0.210253630418553  0.0000
  O3     O3        0.680062990632752    0.665755208458027    0.197020675829620  0.0000
  O2     O2        0.353405774789383    0.667412557599792    0.796534929403524  0.0000
  O3     O3        0.846348823898992    0.835371601032747    0.810754751605517  0.0000
  O2     O2        0.173215939020377    0.827469751780705    0.210266112395344  0.0000
  O3     O3        0.180072067381398    0.165755505015678    0.197038342917345  0.0000
  O2     O2        0.853392895292546    0.167407368801607    0.796514889022059  0.0000
  O2     O2        0.224459048677570    0.249916697098069    0.970715877693238  0.0000
  O2     O2        0.728975512488231    0.245240180489667    0.977402100490853  0.0000
  O2     O2        0.724452134465136    0.749930599250370    0.970710715365047  0.0000
  O2     O2        0.228970726703396    0.745247488442809    0.977403998286438  0.0000
  O2     O2        0.461555225058517    0.369885837670133    0.313681196155110  0.0000
  O3     O3        0.568696039511692    0.368248462238066    0.696812452576857  0.0000
  O2     O2        0.560665456343467    0.625454098817822    0.684777389757292  0.0000
  O3     O3        0.451858459312060    0.630360172787045    0.299917706289602  0.0000
  O2     O2        0.961568980580997    0.869873944930281    0.313724791461652  0.0000
  O3     O3        0.068684028704076    0.868219689261354    0.696763995658390  0.0000
  O2     O2        0.060658047588008    0.125485944869190    0.684735563144771  0.0000
  O3     O3        0.951872915800693    0.130371817019094    0.299951333728300  0.0000
  O3     O3        0.304147019255464    0.382656316966977    0.500074327649273  0.0000
  O2     O2        0.709251039979086    0.387815208323517    0.494304801195246  0.0000
  O3     O3        0.716805765273116    0.609378617345552    0.498327913774219  0.0000
  O2     O2        0.312787636915839    0.614001264121364    0.506425069014569  0.0000
  O3     O3        0.804127971671512    0.882697246974864    0.500074006139075  0.0000
  O2     O2        0.209273471490800    0.887830626627848    0.494309162311107  0.0000
  O3     O3        0.216822812856545    0.109351244909524    0.498331692094732  0.0000
  O2     O2        0.812777305050528    0.113963653679606    0.506422960348046  0.0000
  O2     O2        0.285272696827574    0.498397742351285    0.281426000184588  0.0000
  O2     O2        0.741944958070211    0.498928380402737    0.726450758722892  0.0000
  O2     O2        0.785304090725212    0.998397172473949    0.281373514979239  0.0000
  O2     O2        0.241885781911609    0.998927727506996    0.726470744409765  0.0000
  O3     O3        0.396088688601290    0.506245849196043    0.739465855523777  0.0000
  O3     O3        0.621988645176235    0.490740507642390    0.254669324497610  0.0000
  O3     O3        0.896172518947256    0.006247614438120    0.739502339708783  0.0000
  O3     O3        0.121962041907353    0.990737870936807    0.254657895222259  0.0000
