data_c01194
_audit_creation_method             Generated by GULP
_audit_author_name                 Salvador R. G. Balestra
_symmetry_space_group_name_H-M     'P 1             '
_symmetry_Int_Tables_number        1

loop_
_symmetry_equiv_pos_site_id
_symmetry_equiv_pos_as_xyz
_cell_length_a                       10.2511
_cell_length_b                       15.2019
_cell_length_c                        8.9141
_cell_angle_alpha                   89.9999
_cell_angle_beta                   104.9415
_cell_angle_gamma                   89.9997

loop_
_atom_site_label
_atom_site_type_symbol
_atom_site_fract_x
_atom_site_fract_y
_atom_site_fract_z
_atom_site_charge
  Ge     Ge        0.306699999999978    0.397900000000050    0.331699999999955  0.0000
  Ge     Ge        0.736357160566497    0.586069706020094    0.673255924089336  0.0000
  Ge     Ge        0.236366160860253    0.897894974889555    0.673247088961555  0.0000
  Ge     Ge        0.806696694518051    0.086076608580403    0.331708422543068  0.0000
  Si     Si        0.346275880633332    0.248444008670965    0.896605664345008  0.0000
  Si     Si        0.639261830499182    0.226564618265185    0.105222099457837  0.0000
  Si     Si        0.696787006777381    0.735526088551037    0.108351493646081  0.0000
  Si     Si        0.403800019686457    0.757407264071519    0.899738535422620  0.0000
  Si     Si        0.903802030212599    0.726553419193617    0.899742731705346  0.0000
  Si     Si        0.196786482963417    0.748441438170012    0.108350233069638  0.0000
  Si     Si        0.139261706574562    0.257415382933816    0.105217346793602  0.0000
  Si     Si        0.846275108543347    0.235529100801577    0.896608838864358  0.0000
  Si     Si        0.707367428334135    0.381156920517244    0.667236708825824  0.0000
  Si     Si        0.335686852798712    0.602811890256525    0.337719759098453  0.0000
  Si     Si        0.835669884371958    0.881162998931433    0.337717491701070  0.0000
  Si     Si        0.207381596412619    0.102809027358213    0.667243183347692  0.0000
  Si     Si        0.409605666231198    0.398888894566472    0.694170240140787  0.0000
  Si     Si        0.610559078243751    0.383293554909907    0.309918313281664  0.0000
  Si     Si        0.633455138042782    0.585084554108782    0.310792084245903  0.0000
  Si     Si        0.432492971441681    0.600677627931601    0.695038805803707  0.0000
  Si     Si        0.932490014812650    0.883287309120751    0.695041847291096  0.0000
  Si     Si        0.133452187949557    0.898889425309956    0.310776694426145  0.0000
  Si     Si        0.110560132069561    0.100682631738160    0.309912237239282  0.0000
  Si     Si        0.909613091916131    0.085079616624415    0.694188456357846  0.0000
  O2     O2        0.483873404318669    0.216772714975408    0.013383895747211  0.0000
  O2     O2        0.559192853365033    0.767194061850482    0.991561384049923  0.0000
  O2     O2        0.059195882175221    0.716761760438876    0.991566960250349  0.0000
  O2     O2        0.983871736309104    0.267208175985776    0.013380253792259  0.0000
  O2     O2        0.306394660245614    0.176932467754082    0.760252805602823  0.0000
  O3     O3        0.674270916746661    0.146578242681022    0.224357717756729  0.0000
  O2     O2        0.736659153245121    0.807041711137429    0.244697451072645  0.0000
  O3     O3        0.368788831619673    0.837398547305558    0.780615198427246  0.0000
  O3     O3        0.868787308297175    0.646559856364173    0.780623596944919  0.0000
  O2     O2        0.236668417284917    0.676935633306894    0.244713385886782  0.0000
  O3     O3        0.174270472670831    0.337406898350501    0.224343909479279  0.0000
  O2     O2        0.806385626599148    0.307034102687669    0.760244607794709  0.0000
  O2     O2        0.362590845840805    0.343203806139645    0.823369050877393  0.0000
  O2     O2        0.666333210846612    0.318693693031580    0.198463959726634  0.0000
  O2     O2        0.680467997697929    0.640765936067855    0.181587497894724  0.0000
  O2     O2        0.376718422349728    0.665280604679359    0.806488128369877  0.0000
  O2     O2        0.876725973954726    0.818681149144596    0.806494323206942  0.0000
  O2     O2        0.180448814213856    0.843205891432262    0.181562316387608  0.0000
  O2     O2        0.166334734344447    0.165289164724975    0.198468898566755  0.0000
  O2     O2        0.862601546455172    0.140765972178384    0.823388310057532  0.0000
  O2     O2        0.231411774373917    0.259592119279094    0.985759087709223  0.0000
  O2     O2        0.731412573112874    0.224384765607515    0.985763270689977  0.0000
  O2     O2        0.811661248862173    0.724378229521437    0.019212367805813  0.0000
  O2     O2        0.311660147319637    0.759585411834709    0.019210179022355  0.0000
  O3     O3        0.455813178519855    0.360853226297561    0.298663305824755  0.0000
  O2     O2        0.557124705460684    0.366702924036598    0.686421782237074  0.0000
  O3     O3        0.587240322761956    0.623119364125960    0.706283203818592  0.0000
  O2     O2        0.485934754413910    0.617272676187437    0.318546062022476  0.0000
  O2     O2        0.985911264088322    0.866730988421358    0.318504515599828  0.0000
  O3     O3        0.087249047497872    0.860864172167076    0.706302553494759  0.0000
  O2     O2        0.057156212273986    0.117233681355644    0.686491580410660  0.0000
  O3     O3        0.955801590699058    0.123102213352154    0.298623207043055  0.0000
  O3     O3        0.309312594889556    0.388186184015315    0.525724914210230  0.0000
  O2     O2        0.701742219693231    0.371275431001418    0.485520024514342  0.0000
  O3     O3        0.733756441333502    0.595793293621507    0.479234190948724  0.0000
  O2     O2        0.341295994166349    0.612688190319599    0.519437767825526  0.0000
  O2     O2        0.841306533635303    0.871255695476076    0.519437474286846  0.0000
  O3     O3        0.233744480095132    0.888151669319103    0.479220444238181  0.0000
  O2     O2        0.201711953955493    0.112717816460950    0.485522644966431  0.0000
  O3     O3        0.809344802181140    0.095815960518501    0.525736546231393  0.0000
  O3     O3        0.282348679446147    0.507208795792742    0.279131988079234  0.0000
  O3     O3        0.760712540616874    0.476759171770873    0.725811840891629  0.0000
  O3     O3        0.782298294283068    0.976767341432084    0.279174402248178  0.0000
  O3     O3        0.260761356880938    0.007206732719033    0.725773218003112  0.0000
  O2     O2        0.417950220559868    0.500595399347133    0.748114990442105  0.0000
  O2     O2        0.625110776518239    0.483376413101484    0.256856000818025  0.0000
  O2     O2        0.917900492179151    0.983368558525234    0.748099289532255  0.0000
  O2     O2        0.125159831733211    0.000601762499351    0.256865625370387  0.0000
