data_image0
_chemical_formula_structural       Ge4Si20O48
_chemical_formula_sum              "Ge4 Si20 O48"
_cell_length_a       10.45
_cell_length_b       15.028
_cell_length_c       8.954000689226353
_cell_angle_alpha    90.0
_cell_angle_beta     105.64000352083943
_cell_angle_gamma    90.0

_space_group_name_H-M_alt    "P 1"
_space_group_IT_number       1

loop_
  _space_group_symop_operation_xyz
  'x, y, z'

loop_
  _atom_site_type_symbol
  _atom_site_label
  _atom_site_symmetry_multiplicity
  _atom_site_fract_x
  _atom_site_fract_y
  _atom_site_fract_z
  _atom_site_occupancy
  Ge  Ge        1.0  0.3067  0.3979  0.3317  1.0000
  Ge  Ge        1.0  0.6933  0.6021  0.6683  1.0000
  Ge  Ge        1.0  0.19329999999999997  0.8979  0.6683  1.0000
  Ge  Ge        1.0  0.8066999999999999  0.1021  0.3317  1.0000
  Si  Si        1.0  0.35159999999999997  0.2445  0.8938999999999999  1.0000
  Si  Si        1.0  0.6484  0.2445  0.1061  1.0000
  Si  Si        1.0  0.6484  0.7555  0.1061  1.0000
  Si  Si        1.0  0.35159999999999997  0.7555  0.8938999999999999  1.0000
  Si  Si        1.0  0.8515999999999999  0.7445  0.8938999999999999  1.0000
  Si  Si        1.0  0.1484  0.7445  0.1061  1.0000
  Si  Si        1.0  0.1484  0.2555  0.1061  1.0000
  Si  Si        1.0  0.8515999999999999  0.2555  0.8938999999999999  1.0000
  Si  Si        1.0  0.6933  0.3979  0.6683  1.0000
  Si  Si        1.0  0.3067  0.6021  0.3317  1.0000
  Si  Si        1.0  0.8066999999999999  0.8979  0.3317  1.0000
  Si  Si        1.0  0.19329999999999997  0.1021  0.6683  1.0000
  Si  Si        1.0  0.4039  0.3979  0.6863  1.0000
  Si  Si        1.0  0.5960999999999999  0.3979  0.3137  1.0000
  Si  Si        1.0  0.5960999999999999  0.6021  0.3137  1.0000
  Si  Si        1.0  0.4039  0.6021  0.6863  1.0000
  Si  Si        1.0  0.9039  0.8979  0.6863  1.0000
  Si  Si        1.0  0.0961  0.8979  0.3137  1.0000
  Si  Si        1.0  0.0961  0.1021  0.3137  1.0000
  Si  Si        1.0  0.9039  0.1021  0.6863  1.0000
  O   O2        1.0  0.49999999999999994  0.2266  0.0  1.0000
  O   O2        1.0  0.49999999999999994  0.7734  0.0  1.0000
  O   O2        1.0  0.0  0.7266  0.0  1.0000
  O   O2        1.0  0.0  0.2734  0.0  1.0000
  O   O2        1.0  0.3094  0.1641  0.7715  1.0000
  O   O2        1.0  0.6906  0.1641  0.2285  1.0000
  O   O2        1.0  0.6906  0.8359  0.2285  1.0000
  O   O2        1.0  0.3094  0.8359  0.7715  1.0000
  O   O2        1.0  0.8094  0.6640999999999999  0.7715  1.0000
  O   O2        1.0  0.1906  0.6640999999999999  0.2285  1.0000
  O   O2        1.0  0.1906  0.3359  0.2285  1.0000
  O   O2        1.0  0.8094  0.3359  0.7715  1.0000
  O   O2        1.0  0.34669999999999995  0.3367  0.8011  1.0000
  O   O2        1.0  0.6532999999999999  0.3367  0.1989  1.0000
  O   O2        1.0  0.6532999999999999  0.6633  0.1989  1.0000
  O   O2        1.0  0.34669999999999995  0.6633  0.8011  1.0000
  O   O2        1.0  0.8467  0.8367  0.8011  1.0000
  O   O2        1.0  0.15329999999999996  0.8367  0.1989  1.0000
  O   O2        1.0  0.15329999999999996  0.1633  0.1989  1.0000
  O   O2        1.0  0.8467  0.1633  0.8011  1.0000
  O   O2        1.0  0.24999999999999997  0.25  0.0  1.0000
  O   O2        1.0  0.75  0.25  0.0  1.0000
  O   O2        1.0  0.75  0.75  0.0  1.0000
  O   O2        1.0  0.24999999999999997  0.75  0.0  1.0000
  O   O2        1.0  0.4367  0.3895  0.2686  1.0000
  O   O2        1.0  0.5632999999999999  0.3895  0.7314  1.0000
  O   O2        1.0  0.5632999999999999  0.6105  0.7314  1.0000
  O   O2        1.0  0.4367  0.6105  0.2686  1.0000
  O   O2        1.0  0.9366999999999999  0.8895  0.2686  1.0000
  O   O2        1.0  0.06329999999999998  0.8895  0.7314  1.0000
  O   O2        1.0  0.06329999999999998  0.1105  0.7314  1.0000
  O   O2        1.0  0.9366999999999999  0.1105  0.2686  1.0000
  O   O2        1.0  0.34229999999999994  0.3661  0.5098  1.0000
  O   O2        1.0  0.6576999999999998  0.3661  0.49019999999999997  1.0000
  O   O2        1.0  0.6576999999999998  0.6339  0.49019999999999997  1.0000
  O   O2        1.0  0.34229999999999994  0.6339  0.5098  1.0000
  O   O2        1.0  0.8423  0.8660999999999999  0.5098  1.0000
  O   O2        1.0  0.15769999999999998  0.8660999999999999  0.49019999999999997  1.0000
  O   O2        1.0  0.15769999999999998  0.1339  0.49019999999999997  1.0000
  O   O2        1.0  0.8423  0.1339  0.5098  1.0000
  O   O2        1.0  0.2581  0.5  0.3196  1.0000
  O   O2        1.0  0.7418999999999999  0.5  0.6804  1.0000
  O   O2        1.0  0.7581  0.0  0.3196  1.0000
  O   O2        1.0  0.24189999999999998  0.0  0.6804  1.0000
  O   O2        1.0  0.3632  0.5  0.7035  1.0000
  O   O2        1.0  0.6368  0.5  0.2965  1.0000
  O   O2        1.0  0.8631999999999999  0.0  0.7035  1.0000
  O   O2        1.0  0.1368  0.0  0.2965  1.0000
