data_c00001.vasp
_audit_creation_method             Generated by GULP
_audit_author_name                 Salvador R. G. Balestra
_symmetry_space_group_name_H-M     'P 1             '
_symmetry_Int_Tables_number        1

loop_
_symmetry_equiv_pos_site_id
_symmetry_equiv_pos_as_xyz
_cell_length_a                       10.2788
_cell_length_b                       15.9065
_cell_length_c                        9.3365
_cell_angle_alpha                   89.7193
_cell_angle_beta                   105.2407
_cell_angle_gamma                   89.5433

loop_
_atom_site_label
_atom_site_type_symbol
_atom_site_fract_x
_atom_site_fract_y
_atom_site_fract_z
_atom_site_charge
  Ge     Ge        0.330480999999963    0.205438999999956    0.874874999999975  0.0000
  Ge     Ge        0.632111865148262    0.221966871720823    0.079137671069268  0.0000
  Ge     Ge        0.632144112655468    0.720135831477484    0.083640384687601  0.0000
  Ge     Ge        0.330946185694664    0.718167463987966    0.870561368123290  0.0000
  Ge     Ge        0.831466630998161    0.707569795022211    0.871919607354196  0.0000
  Ge     Ge        0.130424849626730    0.724415397850486    0.081878682582938  0.0000
  Ge     Ge        0.131256875190918    0.220378532331836    0.084056706866308  0.0000
  Ge     Ge        0.833014610390240    0.214317317516069    0.864088804826213  0.0000
  Ge     Ge        0.244579309493781    0.374431269690095    0.291046717555486  0.0000
  Ge     Ge        0.653526711833480    0.357707721086076    0.638242166522764  0.0000
  Ge     Ge        0.656231854834829    0.561025082252615    0.660484473141221  0.0000
  Ge     Ge        0.251359942130228    0.575073864779686    0.309841378818733  0.0000
  Ge     Ge        0.741123928333737    0.875232735096567    0.292985721167064  0.0000
  Ge     Ge        0.150770096892162    0.858798464525832    0.641738068330955  0.0000
  Ge     Ge        0.150623061789707    0.062138417606258    0.660783395792778  0.0000
  Ge     Ge        0.748982768912984    0.074788236726250    0.313071427295406  0.0000
  Ge     Ge        0.341940034548019    0.357784093426813    0.652992854870927  0.0000
  Ge     Ge        0.558434279460342    0.371347706167048    0.283036405131281  0.0000
  Ge     Ge        0.565431645859757    0.573405542723969    0.305091104362450  0.0000
  Ge     Ge        0.343863445068225    0.559438664641886    0.672185640130905  0.0000
  Ge     Ge        0.840142641287867    0.861573000051721    0.655772644029821  0.0000
  Ge     Ge        0.055905718089991    0.872881491962082    0.287945012201498  0.0000
  Ge     Ge        0.064784373546809    0.075227430112374    0.308864479899749  0.0000
  Si     Si        0.842152955701414    0.058866723543844    0.667663035151316  0.0000
  O1     O1        0.503845601791250    0.201579907214183    0.924978074495043  0.0000
  O1     O1        0.504793800644654    0.720073399912364    0.923978005565740  0.0000
  O1     O1        0.004928079579288    0.705799069671559    0.924549502588752  0.0000
  O1     O1        0.006049646653380    0.219486667191211    0.922330128366350  0.0000
  O1     O1        0.271719248752231    0.112827776172013    0.789995224810324  0.0000
  O1     O1        0.637616633958366    0.148191570059305    0.216824083892853  0.0000
  O1     O1        0.625511693691642    0.809589577563472    0.185038586717605  0.0000
  O1     O1        0.279399583396126    0.798485032909238    0.745587610966274  0.0000
  O1     O1        0.781344048898301    0.616278038114407    0.777928379676275  0.0000
  O1     O1        0.136324493766575    0.646439773932465    0.211949181160059  0.0000
  O1     O1        0.125212010866633    0.310387361758040    0.184030226137421  0.0000
  O1     O1        0.779814814130320    0.295450189589887    0.742230159241157  0.0000
  O1     O1        0.275510907199985    0.288134455644611    0.753453012609343  0.0000
  O1     O1        0.615964330651793    0.318966231416859    0.152002206430061  0.0000
  O1     O1        0.634384607691312    0.633419264628708    0.193452039485446  0.0000
  O1     O1        0.281302449487312    0.623448007862038    0.785141455874601  0.0000
  O1     O1        0.773442398226917    0.793698935940879    0.758565942250234  0.0000
  O1     O1        0.113443979328764    0.820243422620469    0.157822862641926  0.0000
  O1     O1        0.131737822856744    0.133833335756516    0.193547995963278  0.0000
  O3     O3        0.785635703700355    0.119138913335385    0.774722143255541  0.0000
  O1     O1        0.281493219273030    0.218911788223414    0.034586255211601  0.0000
  O1     O1        0.777861176801400    0.220366940087504    0.021270128446595  0.0000
  O1     O1        0.780951466120667    0.716433343732078    0.031640177184300  0.0000
  O1     O1        0.278557852652086    0.727425390181764    0.028636244653075  0.0000
  O1     O1        0.385637586973182    0.377301179198160    0.225058528121238  0.0000
  O1     O1        0.515610860292453    0.353184846186676    0.709926615945348  0.0000
  O1     O1        0.517373120830098    0.557773762387925    0.729874982376188  0.0000
  O1     O1        0.392272822468524    0.577097362654335    0.243105019376550  0.0000
  O1     O1        0.883243157593172    0.878479553843962    0.229231748471244  0.0000
  O1     O1        0.012905406683674    0.852555035926355    0.713292358113005  0.0000
  O3     O3        0.004460483538014    0.056852511898139    0.719881576152396  0.0000
  O1     O1        0.891650955059496    0.079145886245654    0.250320143061483  0.0000
  O1     O1        0.292560254804188    0.333789848020358    0.468258650589019  0.0000
  O1     O1        0.608513102692429    0.325283284780281    0.456351186662475  0.0000
  O1     O1        0.613129586657549    0.606369084429339    0.486441032417032  0.0000
  O1     O1        0.297569274287415    0.599606348040946    0.494506410291971  0.0000
  O1     O1        0.786590157040306    0.836745919061993    0.471733702796719  0.0000
  O1     O1        0.104954396493847    0.825668295432023    0.460228068347319  0.0000
  O1     O1        0.117636336972222    0.109816205409853    0.489498708324081  0.0000
  O3     O3        0.796113241290029    0.095832267502279    0.501053664442171  0.0000
  O1     O1        0.184839377151525    0.475326279127450    0.292612981809331  0.0000
  O1     O1        0.708880584126670    0.459514217719452    0.644557514753253  0.0000
  O1     O1        0.679714882018841    0.976274886002840    0.288488765417100  0.0000
  O1     O1        0.203207948643206    0.960983696022764    0.644845977478296  0.0000
  O1     O1        0.287549181847293    0.458501591682819    0.675477790160298  0.0000
  O1     O1        0.620233299972933    0.471676300210315    0.298351127460419  0.0000
  O3     O3        0.788648648505051    0.964722226703086    0.673597184956575  0.0000
  O1     O1        0.118148051036568    0.973091754947867    0.304292374582211  0.0000
