data_image0
_chemical_formula_structural       Ge23SiO48
_chemical_formula_sum              "Ge23 Si1 O48"
_cell_length_a       11.115313610633022
_cell_length_b       16.30864282903994
_cell_length_c       9.580323731453758
_cell_angle_alpha    90.06769362007087
_cell_angle_beta     105.61647281396749
_cell_angle_gamma    89.8787286614385

_space_group_name_H-M_alt    "P 1"
_space_group_IT_number       1

loop_
  _space_group_symop_operation_xyz
  'x, y, z'

loop_
  _atom_site_type_symbol
  _atom_site_label
  _atom_site_symmetry_multiplicity
  _atom_site_fract_x
  _atom_site_fract_y
  _atom_site_fract_z
  _atom_site_occupancy
  Ge  Ge        1.0  0.33048099663322433  0.2054391778944836  0.8748751255370892  1.0000
  Ge  Ge        1.0  0.6274488716995955  0.20880186242544269  0.08019518479623838  1.0000
  Ge  Ge        1.0  0.6273811193400788  0.7154409499412067  0.08019665825149223  1.0000
  Ge  Ge        1.0  0.33085721974429916  0.7190179601407575  0.8730113984483092  1.0000
  Ge  Ge        1.0  0.8303069884821875  0.7082039729962548  0.8716438174215286  1.0000
  Ge  Ge        1.0  0.12661674495287364  0.7107525642162352  0.07949511470062466  1.0000
  Ge  Ge        1.0  0.1264915536759255  0.21514982260936644  0.08114666856268678  1.0000
  Ge  Ge        1.0  0.8307346651731082  0.216075083600084  0.8687215064378249  1.0000
  Ge  Ge        1.0  0.26180125039690755  0.3606169769623604  0.3037387007367999  1.0000
  Ge  Ge        1.0  0.658538171166939  0.35928770208463257  0.648061373774203  1.0000
  Ge  Ge        1.0  0.6580578098033663  0.5656568495047746  0.6495798694977677  1.0000
  Ge  Ge        1.0  0.26174098980071503  0.5649957317630463  0.30355959664170806  1.0000
  Ge  Ge        1.0  0.7603088802848891  0.861498737879719  0.3047518332777441  1.0000
  Ge  Ge        1.0  0.1562312002348507  0.8592761748756874  0.6500709701511549  1.0000
  Ge  Ge        1.0  0.1523768480265857  0.06551720945244807  0.6505051850026101  1.0000
  Ge  Ge        1.0  0.7626511566986929  0.06467241411968161  0.3090307105500369  1.0000
  Ge  Ge        1.0  0.3611546500819768  0.359660976831589  0.6673600374894038  1.0000
  Ge  Ge        1.0  0.5607099810440842  0.35993466585118383  0.28678395212811175  1.0000
  Ge  Ge        1.0  0.5604238026336508  0.5649898322299033  0.28825500369035284  1.0000
  Ge  Ge        1.0  0.3606462664069959  0.5645091604317591  0.6675560577320188  1.0000
  Ge  Ge        1.0  0.8600113266204805  0.86307793013299  0.6684673239832455  1.0000
  Ge  Ge        1.0  0.05953649728916022  0.8604317953599057  0.29014974038903196  1.0000
  Ge  Ge        1.0  0.06011388999208113  0.06552987955573314  0.2913419721775726  1.0000
  Si  Si        1.0  0.8604212913478753  0.06406131435373873  0.6668498754006731  1.0000
  O   O1        1.0  0.49457562343430983  0.1868715456949945  0.933572351357004  1.0000
  O   O1        1.0  0.4955807788270176  0.7345157915729589  0.9307876547747495  1.0000
  O   O1        1.0  0.9950577845089517  0.6920538536554219  0.9296557679969448  1.0000
  O   O1        1.0  0.9952134688390585  0.23221136339356394  0.9303085358671882  1.0000
  O   O1        1.0  0.282978305011493  0.12022111604670607  0.7565039558651101  1.0000
  O   O1        1.0  0.6396141406585524  0.12907733940494176  0.21111875049456186  1.0000
  O   O1        1.0  0.6363251504939713  0.7996496165411172  0.2020495072885391  1.0000
  O   O1        1.0  0.2878993378613297  0.8040422381488977  0.7529453842844114  1.0000
  O   O1        1.0  0.7874001628391578  0.6233670886502883  0.7508421754827929  1.0000
  O   O1        1.0  0.1366518366510478  0.6260373407011658  0.2002846322471969  1.0000
  O   O1        1.0  0.13555713178030046  0.3005601723335131  0.20046927967881273  1.0000
  O   O1        1.0  0.7881318737969137  0.3022891836403485  0.7512914221688461  1.0000
  O   O1        1.0  0.29472724912639087  0.30212949035569  0.7854457332898129  1.0000
  O   O1        1.0  0.6245943353998017  0.30712979558926984  0.16116244512548264  1.0000
  O   O1        1.0  0.626441270255961  0.6185905329414019  0.16595930671733955  1.0000
  O   O1        1.0  0.2929149498509712  0.6220860332802757  0.7849636130233973  1.0000
  O   O1        1.0  0.7925496729549504  0.8059776475772572  0.7864575762227555  1.0000
  O   O1        1.0  0.12450414987387445  0.8073989180079896  0.16594708024198127  1.0000
  O   O1        1.0  0.12577120983121304  0.11869257321651813  0.16827037506479653  1.0000
  O   O1        1.0  0.797619046896278  0.12073606981721173  0.7748102795243611  1.0000
  O   O1        1.0  0.2668930642026289  0.20617950563366824  0.02621327930876486  1.0000
  O   O1        1.0  0.76472626021048  0.21429275379752943  0.018315392912282024  1.0000
  O   O1        1.0  0.7664998494204115  0.7057388059876761  0.022835201808704804  1.0000
  O   O1        1.0  0.266402228739525  0.7208757006254012  0.023683151836249302  1.0000
  O   O1        1.0  0.395584130153451  0.344450579116316  0.2373102234544947  1.0000
  O   O1        1.0  0.5259710554966807  0.3416369862779524  0.7159102199656435  1.0000
  O   O1        1.0  0.525444073396993  0.5823597686153434  0.71795516369311  1.0000
  O   O1        1.0  0.39529484020682454  0.5806923599659083  0.236730349941855  1.0000
  O   O1        1.0  0.8943006312096132  0.8456609096075056  0.2386001937391604  1.0000
  O   O1        1.0  0.02396167069639058  0.8417558839206429  0.7184125185420451  1.0000
  O   O1        1.0  0.01589937241803333  0.08027660620534047  0.7117375840630594  1.0000
  O   O1        1.0  0.894851990395501  0.08047436497531922  0.23979621766415643  1.0000
  O   O1        1.0  0.2854552088189758  0.3276175019273154  0.4868783798498437  1.0000
  O   O1        1.0  0.6343198164647745  0.3243162229893634  0.46572862051292857  1.0000
  O   O1        1.0  0.6327769119515093  0.600702259803559  0.46734423315113927  1.0000
  O   O1        1.0  0.2858919903601284  0.5972604628021188  0.4872431629737381  1.0000
  O   O1        1.0  0.7832467340759033  0.8303189098904055  0.48870656534685136  1.0000
  O   O1        1.0  0.13166317487711213  0.8233089355779201  0.46834239108042325  1.0000
  O   O1        1.0  0.13162374467672178  0.10231341871138189  0.4699312833759401  1.0000
  O   O1        1.0  0.7917603241959223  0.09179958028836789  0.49538578378607645  1.0000
  O   O1        1.0  0.20261893177609527  0.462861714797491  0.2758218411845041  1.0000
  O   O1        1.0  0.7135438064372506  0.46243846488823825  0.6728298750544448  1.0000
  O   O1        1.0  0.7004049974332086  0.9635264620639109  0.27484743637531184  1.0000
  O   O1        1.0  0.20951613789025061  0.9627335074442147  0.672266901089439  1.0000
  O   O1        1.0  0.3212531404072176  0.4620999310653417  0.7032178845767547  1.0000
  O   O1        1.0  0.6037557806551527  0.46251843830583533  0.258341886005556  1.0000
  O   O1        1.0  0.8263559735647126  0.9671259291527021  0.7005464310376922  1.0000
  O   O1        1.0  0.10420536204461575  0.9629109672454971  0.2636207156493795  1.0000
