data_image0
_chemical_formula_structural       Ge23SiO48
_chemical_formula_sum              "Ge23 Si1 O48"
_cell_length_a       11.066869186355573
_cell_length_b       16.321484319030475
_cell_length_c       9.589246212636823
_cell_angle_alpha    90.07582293078313
_cell_angle_beta     105.7217131740288
_cell_angle_gamma    89.75940567763467

_space_group_name_H-M_alt    "P 1"
_space_group_IT_number       1

loop_
  _space_group_symop_operation_xyz
  'x, y, z'

loop_
  _atom_site_type_symbol
  _atom_site_label
  _atom_site_symmetry_multiplicity
  _atom_site_fract_x
  _atom_site_fract_y
  _atom_site_fract_z
  _atom_site_occupancy
  Ge  Ge        1.0  0.33059302661923456  0.20560803530147034  0.8723982681715524  1.0000
  Ge  Ge        1.0  0.6314745852163246  0.20950327189297457  0.07920182720896578  1.0000
  Ge  Ge        1.0  0.6323956990873268  0.7129324648573677  0.08457446334580337  1.0000
  Ge  Ge        1.0  0.3347931983525882  0.7171355772773385  0.8755145813669203  1.0000
  Ge  Ge        1.0  0.8340251377038557  0.7053470703961653  0.8750810427041724  1.0000
  Ge  Ge        1.0  0.13113547323598282  0.7096327477753265  0.08206162087944428  1.0000
  Ge  Ge        1.0  0.12359477211659876  0.2137870358904233  0.07879252301496392  1.0000
  Ge  Ge        1.0  0.2642606460806585  0.35876971800618246  0.3021108200264992  1.0000
  Ge  Ge        1.0  0.6607414075760584  0.3560349223684898  0.6542863390295129  1.0000
  Ge  Ge        1.0  0.6622519103579411  0.56174285184276  0.6553130180249114  1.0000
  Ge  Ge        1.0  0.2654618288327994  0.5633604627191345  0.30492376457814596  1.0000
  Ge  Ge        1.0  0.7626557357031747  0.8602868226884085  0.30697131264189953  1.0000
  Ge  Ge        1.0  0.15988599920092544  0.8582080104618743  0.6529765385795891  1.0000
  Ge  Ge        1.0  0.15999394970857564  0.06439837877872628  0.651552868991147  1.0000
  Ge  Ge        1.0  0.7619065308188385  0.06356163957314445  0.30682966473715856  1.0000
  Ge  Ge        1.0  0.35928223097621  0.35860034794106127  0.6655856821704653  1.0000
  Ge  Ge        1.0  0.5663968783316804  0.3575801947870512  0.2926674051607562  1.0000
  Ge  Ge        1.0  0.5663245174669528  0.5628012251124304  0.2937153840911772  1.0000
  Ge  Ge        1.0  0.3618313031420063  0.5628970068573079  0.6685688531830963  1.0000
  Ge  Ge        1.0  0.861194209823119  0.8610745165594315  0.6716793236577155  1.0000
  Ge  Ge        1.0  0.06328417073970757  0.8592491818953998  0.2928705060124191  1.0000
  Ge  Ge        1.0  0.06293953625181162  0.06390840110612568  0.2922274730633479  1.0000
  Ge  Ge        1.0  0.8609739568835857  0.06555792917285483  0.6710684223873983  1.0000
  Si  Si        1.0  0.830456954632609  0.21710829004299964  0.8741996173661589  1.0000
  O   O1        1.0  0.49662640669057745  0.19310187301243564  0.9317105850483446  1.0000
  O   O1        1.0  0.5008486274949485  0.7299658499473707  0.9328334247841054  1.0000
  O   O1        1.0  0.00022370361915753488  0.6919992572103452  0.9302971824662617  1.0000
  O   O1        1.0  0.9859308669604012  0.23040880154402343  0.9354283718031596  1.0000
  O   O1        1.0  0.29210560100651595  0.11900132483096963  0.755477588595615  1.0000
  O   O1        1.0  0.6386616789539602  0.1251170475422326  0.1997011996087214  1.0000
  O   O1        1.0  0.6389891195673083  0.7979370568112946  0.20402839906621914  1.0000
  O   O1        1.0  0.2918292661740525  0.8028436741716618  0.7570108490117667  1.0000
  O   O1        1.0  0.7919920099553419  0.6186967693607952  0.7587460358009789  1.0000
  O   O1        1.0  0.13977341384821568  0.6244101614612327  0.20115905975488474  1.0000
  O   O1        1.0  0.13688516393010225  0.30037218044885416  0.19619501325553806  1.0000
  O   O1        1.0  0.7858086019363878  0.29643625745734964  0.7612135368661216  1.0000
  O   O1        1.0  0.28957483628398323  0.30127769911095187  0.7809114677753044  1.0000
  O   O1        1.0  0.634682742280026  0.3050890727992808  0.1705272943578345  1.0000
  O   O1        1.0  0.6338496069578516  0.6168437027141566  0.1733405766650298  1.0000
  O   O1        1.0  0.29413862746500535  0.6211302922182819  0.7853338501121635  1.0000
  O   O1        1.0  0.7928275796526439  0.8016850482532518  0.7858149160106414  1.0000
  O   O1        1.0  0.12912466201231673  0.8057763042811996  0.16981717774963986  1.0000
  O   O1        1.0  0.1267404835110029  0.11788352269326699  0.16856890124208587  1.0000
  O   O1        1.0  0.7968935971580688  0.1268008712743606  0.7866790270691986  1.0000
  O   O1        1.0  0.26225457412935693  0.2033442643596674  0.019741629934270068  1.0000
  O   O1        1.0  0.7660717261281196  0.21639293215850103  0.012524857826940357  1.0000
  O   O1        1.0  0.7726287695373297  0.703699368668757  0.028137359611396965  1.0000
  O   O1        1.0  0.2719882863958358  0.7195762278058107  0.027401182320166778  1.0000
  O   O1        1.0  0.4005571187114851  0.34151377851313436  0.2398224614610783  1.0000
  O   O1        1.0  0.5249159922339535  0.3404406972058738  0.717744364184346  1.0000
  O   O1        1.0  0.5278410293704426  0.5787158069247025  0.7211908705980947  1.0000
  O   O1        1.0  0.40055849778055014  0.5794147116891869  0.24035609854300805  1.0000
  O   O1        1.0  0.8971740175010146  0.8450952443682885  0.2406250370819997  1.0000
  O   O1        1.0  0.026808754533653282  0.8426138328453453  0.721506927226991  1.0000
  O   O1        1.0  0.0267457276020573  0.08241210156862495  0.7190341114554861  1.0000
  O   O1        1.0  0.8968330725200958  0.0785210851735116  0.241579954835003  1.0000
  O   O1        1.0  0.28517056178687955  0.3261434848120052  0.4848873954664313  1.0000
  O   O1        1.0  0.6392218492917165  0.32197444898411554  0.4719940667302456  1.0000
  O   O1        1.0  0.6386181404878275  0.5972078860114253  0.4736866642206113  1.0000
  O   O1        1.0  0.2882490632647079  0.5959757346055344  0.48803230208017534  1.0000
  O   O1        1.0  0.7861087006609152  0.8292423980769298  0.4908678700723402  1.0000
  O   O1        1.0  0.13464639773367917  0.8220911125953203  0.4713937248599416  1.0000
  O   O1        1.0  0.13581761015584606  0.10075009015569078  0.4703923544231414  1.0000
  O   O1        1.0  0.7836238134393753  0.09604778085843349  0.4898835588396308  1.0000
  O   O1        1.0  0.20641294277932853  0.4614225548592292  0.27460649125576114  1.0000
  O   O1        1.0  0.7180227322407626  0.4585669925765888  0.6807559196787732  1.0000
  O   O1        1.0  0.7011075937985382  0.9619765754321427  0.2770998934711136  1.0000
  O   O1        1.0  0.21519098332350492  0.9611731521204001  0.6734660486761692  1.0000
  O   O1        1.0  0.3189371090857619  0.46094673380370255  0.7013936994601504  1.0000
  O   O1        1.0  0.6090324133927759  0.4601488505952006  0.26408620536857375  1.0000
  O   O1        1.0  0.8223140221807939  0.9634570787851731  0.7097232676857894  1.0000
  O   O1        1.0  0.10827705016240947  0.961439935786563  0.2653557280964903  1.0000
