data_model_0
_audit_creation_method             Generated by GULP
_audit_author_name                 Salvador R. G. Balestra
_symmetry_space_group_name_H-M     'P 1             '
_symmetry_Int_Tables_number        1

loop_
_symmetry_equiv_pos_site_id
_symmetry_equiv_pos_as_xyz
_cell_length_a                       10.0884
_cell_length_b                       15.8920
_cell_length_c                        9.3092
_cell_angle_alpha                   91.0254
_cell_angle_beta                   105.5961
_cell_angle_gamma                   89.5232

loop_
_atom_site_label
_atom_site_type_symbol
_atom_site_fract_x
_atom_site_fract_y
_atom_site_fract_z
_atom_site_charge
  Ge     Ge        0.330593000000022    0.205607999999984    0.872397999999976  0.0000
  Ge     Ge        0.640766447416759    0.198410258403718    0.083212183548367  0.0000
  Ge     Ge        0.641249037984379    0.691546569862669    0.093499194378206  0.0000
  Ge     Ge        0.339704038092952    0.714532022858262    0.878127158349888  0.0000
  Ge     Ge        0.834513086317048    0.705666738249263    0.875479056109244  0.0000
  Ge     Ge        0.139277590381371    0.697732589005859    0.088443746270986  0.0000
  Ge     Ge        0.123760358563729    0.191676632217008    0.079779812592718  0.0000
  Ge     Ge        0.255477902238443    0.338844759193109    0.311913508308725  0.0000
  Ge     Ge        0.662883732380305    0.356325813295513    0.677527993760149  0.0000
  Ge     Ge        0.660024205255492    0.558081815327440    0.650013183522928  0.0000
  Ge     Ge        0.247044021259069    0.540060553288287    0.287672679877428  0.0000
  Ge     Ge        0.750779142699808    0.843839546692972    0.320363002919370  0.0000
  Ge     Ge        0.160527293768084    0.861839285815015    0.674735090894513  0.0000
  Ge     Ge        0.156339772090309    0.064018925834380    0.640685751510870  0.0000
  Ge     Ge        0.736987484319417    0.042664946455647    0.293600851284395  0.0000
  Ge     Ge        0.338399735815604    0.361927449017016    0.673497412071827  0.0000
  Ge     Ge        0.581161381422770    0.338815822835401    0.320850033969444  0.0000
  Ge     Ge        0.568944035528664    0.541390633938165    0.293065692882231  0.0000
  Ge     Ge        0.338776993361673    0.562187957887559    0.650636057714846  0.0000
  Ge     Ge        0.842812449313283    0.867296069170065    0.685887180446606  0.0000
  Ge     Ge        0.071472213642837    0.842483547988949    0.318605310433499  0.0000
  Ge     Ge        0.059416899758454    0.042957819498616    0.286959319115330  0.0000
  Ge     Ge        0.837225802465767    0.068287941536679    0.657167510984170  0.0000
  Si     Si        0.833053895306797    0.213743571537406    0.877334977553102  0.0000
  O1     O1        0.508699418783146    0.209269221281493    0.927693698195672  0.0000
  O1     O1        0.516438912634720    0.709711831010113    0.931022968455790  0.0000
  O1     O1        0.012466630052181    0.707073160239228    0.926364468049563  0.0000
  O1     O1        0.997831228496935    0.210041466108218    0.915074382606935  0.0000
  O1     O1        0.285880845549658    0.125692467600503    0.743384305939330  0.0000
  O1     O1        0.624563269581304    0.106615331567150    0.172994309813078  0.0000
  O1     O1        0.639310327052742    0.768508549741222    0.225339036027959  0.0000
  O1     O1        0.290023687857062    0.809988703716084    0.798147288525156  0.0000
  O1     O1        0.784186141757271    0.624404601618658    0.750755713091572  0.0000
  O1     O1        0.128349489539693    0.603547895679736    0.173714555642486  0.0000
  O1     O1        0.134391605936255    0.269762538353709    0.211650556239880  0.0000
  O1     O1        0.785310357028520    0.305284651945751    0.815224185560356  0.0000
  O1     O1        0.275835205326230    0.300299153873666    0.788909395140402  0.0000
  O1     O1        0.657232146073497    0.278682338087518    0.211888011495784  0.0000
  O1     O1        0.630451989292854    0.594621289034115    0.166734141197772  0.0000
  O1     O1        0.273733973270811    0.635579056993030    0.749578040485464  0.0000
  O1     O1        0.779808035888522    0.801393919945840    0.795169799791365  0.0000
  O1     O1        0.145736387863928    0.778376204753230    0.214323658339031  0.0000
  O1     O1        0.110380851682659    0.095219267756222    0.151847758061386  0.0000
  O1     O1        0.766752774968374    0.142797444871673    0.753796838896535  0.0000
  O1     O1        0.275063753476195    0.191118362105182    0.026934112635575  0.0000
  O1     O1        0.794745496920900    0.196361298832565    0.030199376237986  0.0000
  O1     O1        0.791409278895038    0.693047149965234    0.039113765767550  0.0000
  O1     O1        0.292188638735008    0.700895943900919    0.039215321843521  0.0000
  O1     O1        0.404398042827699    0.332239648499364    0.255035927326390  0.0000
  O1     O1        0.515263701003189    0.365621310477223    0.733408279613469  0.0000
  O1     O1        0.515720476384766    0.563050190906919    0.714722950442000  0.0000
  O1     O1        0.393505481431701    0.534922922540704    0.226765831952979  0.0000
  O1     O1        0.894796995110156    0.840096966424312    0.254537954514920  0.0000
  O1     O1        0.019763025273246    0.869311095377312    0.744532187406830  0.0000
  O1     O1        0.013680820663858    0.071102797429766    0.709141440543328  0.0000
  O1     O1        0.884144789840603    0.034279427941181    0.235328879899264  0.0000
  O1     O1        0.295364239773783    0.316758424803991    0.497848636222221  0.0000
  O1     O1        0.630450995159713    0.308361967783197    0.504794479985046  0.0000
  O1     O1        0.615110219476074    0.588610923690978    0.466553531746719  0.0000
  O1     O1        0.291579560863372    0.583930798138083    0.464443995154261  0.0000
  O1     O1        0.798054977747107    0.825638633459165    0.507556056086665  0.0000
  O1     O1        0.117405155827541    0.812832105535689    0.502244982743694  0.0000
  O1     O1        0.110952910023895    0.094071135771176    0.457298104782874  0.0000
  O1     O1        0.777263025094799    0.086872521082006    0.470270753222966  0.0000
  O1     O1        0.188635736633165    0.439419162447086    0.290110346581523  0.0000
  O1     O1        0.721107783906732    0.456532758577147    0.662950770130050  0.0000
  O1     O1        0.675836710958994    0.942516986965561    0.295776434395142  0.0000
  O1     O1        0.212756610882441    0.961840779865625    0.649731684295582  0.0000
  O1     O1        0.278058143212560    0.463001813686458    0.671129953844731  0.0000
  O1     O1        0.633053222279409    0.440632072650141    0.313007465700267  0.0000
  O1     O1        0.784361884367703    0.968826697372885    0.689583447757595  0.0000
  O1     O1        0.127255009203903    0.943331600331263    0.304717995964498  0.0000
