data_image0
_chemical_formula_structural       Ge23SiO48
_chemical_formula_sum              "Ge23 Si1 O48"
_cell_length_a       11.109101894574655
_cell_length_b       16.308941805535838
_cell_length_c       9.591989282040588
_cell_angle_alpha    90.0807903410856
_cell_angle_beta     105.72599059308001
_cell_angle_gamma    90.01164644062588

_space_group_name_H-M_alt    "P 1"
_space_group_IT_number       1

loop_
  _space_group_symop_operation_xyz
  'x, y, z'

loop_
  _atom_site_type_symbol
  _atom_site_label
  _atom_site_symmetry_multiplicity
  _atom_site_fract_x
  _atom_site_fract_y
  _atom_site_fract_z
  _atom_site_occupancy
  Ge  Ge        1.0  0.3331843912951338  0.20619027258481012  0.8759279406048368  1.0000
  Ge  Ge        1.0  0.6314906143723668  0.2087217431890251  0.08388822074361951  1.0000
  Ge  Ge        1.0  0.626263362367234  0.7178061890018989  0.08080180091048694  1.0000
  Ge  Ge        1.0  0.32909528006773764  0.7200026673108448  0.872735091603963  1.0000
  Ge  Ge        1.0  0.8289531970889672  0.7095468572044191  0.8727416339174973  1.0000
  Ge  Ge        1.0  0.12625432441490025  0.7105660190909482  0.0801435809222067  1.0000
  Ge  Ge        1.0  0.12651570471191373  0.2143582154742843  0.07930692324109237  1.0000
  Ge  Ge        1.0  0.8308653325561186  0.22097136131509798  0.8701765181723121  1.0000
  Ge  Ge        1.0  0.26259161803510256  0.35986396011411564  0.30509256651812094  1.0000
  Ge  Ge        1.0  0.6583909612174921  0.362454914892755  0.6503811989908865  1.0000
  Ge  Ge        1.0  0.6553271176040262  0.5685357769907946  0.6489432956235899  1.0000
  Ge  Ge        1.0  0.2601592875753005  0.5641247129656267  0.30178632840137803  1.0000
  Ge  Ge        1.0  0.7604805952303514  0.8645834001010897  0.30287333292671803  1.0000
  Ge  Ge        1.0  0.15555029922592223  0.8612082271842116  0.6504971643124084  1.0000
  Ge  Ge        1.0  0.1569432733260534  0.06786276185752496  0.6486311175364892  1.0000
  Ge  Ge        1.0  0.36064445380251536  0.36114249269128823  0.6687603117379136  1.0000
  Ge  Ge        1.0  0.5621186013603444  0.36072754294304277  0.28991348434310216  1.0000
  Ge  Ge        1.0  0.5594796845314234  0.565969794512927  0.28811248450453414  1.0000
  Ge  Ge        1.0  0.35783623757126765  0.5659000331964407  0.6658676018299512  1.0000
  Ge  Ge        1.0  0.8571328446446119  0.863370099363685  0.6664747959254739  1.0000
  Ge  Ge        1.0  0.05985681466417739  0.8603212632663323  0.2909006721948961  1.0000
  Ge  Ge        1.0  0.057329181530234405  0.06517225978470022  0.289824427504318  1.0000
  Ge  Ge        1.0  0.8587121911592419  0.06738696031114881  0.6608188421675047  1.0000
  Si  Si        1.0  0.7635925391985549  0.06490404934185541  0.3032148352333483  1.0000
  O   O1        1.0  0.4972932718307513  0.18795556878961503  0.9378871166918459  1.0000
  O   O1        1.0  0.49428553640636635  0.7344408400985301  0.9302425389796304  1.0000
  O   O1        1.0  0.9940207514284488  0.6944085769902136  0.9296872900261758  1.0000
  O   O1        1.0  0.9963070789211886  0.2341913468179277  0.928223296406255  1.0000
  O   O1        1.0  0.2889084456351328  0.12281139632276489  0.752079276931352  1.0000
  O   O1        1.0  0.6491903974965645  0.12454660657419649  0.20615568889212602  1.0000
  O   O1        1.0  0.6347017442083664  0.804586205624656  0.19717530505650682  1.0000
  O   O1        1.0  0.28642898187095617  0.8065993879268202  0.756631492442403  1.0000
  O   O1        1.0  0.7859310756866359  0.624971337852398  0.751441968606165  1.0000
  O   O1        1.0  0.13464412676715332  0.6242829361407154  0.19705045634171472  1.0000
  O   O1        1.0  0.13788895629720221  0.29821984335049384  0.20224446080696562  1.0000
  O   O1        1.0  0.7901570190548378  0.30935165161402106  0.7581567651971926  1.0000
  O   O1        1.0  0.29705045820955367  0.3036418706133698  0.7894542966754141  1.0000
  O   O1        1.0  0.6287301405395175  0.3055582476337858  0.1697113562982988  1.0000
  O   O1        1.0  0.6259674844277028  0.6214241151444906  0.16838907351982516  1.0000
  O   O1        1.0  0.28898039535205944  0.6242285259098389  0.7809429371924678  1.0000
  O   O1        1.0  0.7897086676210138  0.8061148199590396  0.784015729092632  1.0000
  O   O1        1.0  0.12707098175026976  0.8063899237739696  0.17002181526131355  1.0000
  O   O1        1.0  0.11883166174564305  0.1175967268746435  0.16252219361135747  1.0000
  O   O1        1.0  0.7874316620018876  0.12779958043197637  0.7709089791639618  1.0000
  O   O1        1.0  0.2668474782459906  0.20333549601872156  0.024869810106862063  1.0000
  O   O1        1.0  0.7683357167423234  0.21892837506576168  0.022151468766370596  1.0000
  O   O1        1.0  0.7655149897054052  0.7072381634275644  0.02388276217045293  1.0000
  O   O1        1.0  0.26604558523975325  0.7203224733054461  0.024251217420292456  1.0000
  O   O1        1.0  0.3969341319966424  0.3443578205936592  0.23956998252866482  1.0000
  O   O1        1.0  0.525834934561246  0.34429984850259676  0.7178334180017282  1.0000
  O   O1        1.0  0.5226122579367481  0.5847977114524061  0.7170151971123875  1.0000
  O   O1        1.0  0.39381371770374324  0.5797761817451693  0.23512773562461645  1.0000
  O   O1        1.0  0.8945626942359199  0.8448078189008964  0.2388796124546595  1.0000
  O   O1        1.0  0.021868980590174614  0.8444717596809828  0.7165846230674203  1.0000
  O   O1        1.0  0.023512280039594703  0.08618926397522471  0.7146002540961404  1.0000
  O   O1        1.0  0.891910250965907  0.07766431263652487  0.24484337114484023  1.0000
  O   O1        1.0  0.2854270050700389  0.32808136823632855  0.4886278675633225  1.0000
  O   O1        1.0  0.6352854003308219  0.325916748316567  0.46935880305248945  1.0000
  O   O1        1.0  0.6297579573945491  0.6032637365740625  0.46674169839136725  1.0000
  O   O1        1.0  0.2833678518598187  0.5972105107211382  0.48475794633965696  1.0000
  O   O1        1.0  0.7805569135844826  0.8322264895378813  0.4856344412611755  1.0000
  O   O1        1.0  0.13233637605850412  0.8243531182471197  0.46967917304633744  1.0000
  O   O1        1.0  0.13307420078491247  0.102916540332911  0.4667370203916997  1.0000
  O   O1        1.0  0.7877172297309741  0.09362373705013738  0.4766620463306038  1.0000
  O   O1        1.0  0.20193585962541347  0.46162301278425444  0.2751475988969269  1.0000
  O   O1        1.0  0.7122786561256047  0.4658617766398067  0.6718203823525427  1.0000
  O   O1        1.0  0.7092348932886812  0.9683507298352139  0.2762292520178734  1.0000
  O   O1        1.0  0.21059040344657978  0.9644147279325402  0.6718550480124308  1.0000
  O   O1        1.0  0.31936187432021507  0.4634711463469058  0.7030317119708884  1.0000
  O   O1        1.0  0.6039262389141498  0.4634928529922247  0.259674991090608  1.0000
  O   O1        1.0  0.8195120728400561  0.9660588274414673  0.7033166301994301  1.0000
  O   O1        1.0  0.10302098101123836  0.9629234724123411  0.26253280621487307  1.0000
