data_c00002.vasp
_audit_creation_method             Generated by GULP
_audit_author_name                 Salvador R. G. Balestra
_symmetry_space_group_name_H-M     'P 1             '
_symmetry_Int_Tables_number        1

loop_
_symmetry_equiv_pos_site_id
_symmetry_equiv_pos_as_xyz
_cell_length_a                       10.2885
_cell_length_b                       15.8891
_cell_length_c                        9.3320
_cell_angle_alpha                   90.5978
_cell_angle_beta                   105.4582
_cell_angle_gamma                   90.0288

loop_
_atom_site_label
_atom_site_type_symbol
_atom_site_fract_x
_atom_site_fract_y
_atom_site_fract_z
_atom_site_charge
  Ge     Ge        0.333183999999960    0.206189999999992    0.875928000000044  0.0000
  Ge     Ge        0.637970374158865    0.202334323242550    0.088202365736509  0.0000
  Ge     Ge        0.625082768410219    0.704280371617665    0.082717863637292  0.0000
  Ge     Ge        0.325463893467683    0.720766245787058    0.872815513005520  0.0000
  Ge     Ge        0.824453751794305    0.711317492222468    0.870866445116822  0.0000
  Ge     Ge        0.126825543598515    0.703824000525959    0.083752640319523  0.0000
  Ge     Ge        0.128917023063067    0.199598682765915    0.082159197596510  0.0000
  Ge     Ge        0.832607608806069    0.223311949193217    0.871832207484865  0.0000
  Ge     Ge        0.250992829496044    0.347475213975764    0.314902349510618  0.0000
  Ge     Ge        0.655099881700109    0.367423127159338    0.664070579915923  0.0000
  Ge     Ge        0.645945651058613    0.570179204942738    0.639620539810468  0.0000
  Ge     Ge        0.238846726452315    0.548101037763770    0.289131135334498  0.0000
  Ge     Ge        0.746592485073224    0.853919000437593    0.309412038207598  0.0000
  Ge     Ge        0.148501118555040    0.866359405046740    0.663411853052295  0.0000
  Ge     Ge        0.149462698236035    0.069598382226346    0.638330464767037  0.0000
  Ge     Ge        0.342773934513266    0.365990848905758    0.677654607738414  0.0000
  Ge     Ge        0.565660242193789    0.350203420973854    0.309056438888002  0.0000
  Ge     Ge        0.552813130465022    0.552702686452713    0.284849221510371  0.0000
  Ge     Ge        0.334243479665148    0.567460384907329    0.652086618879586  0.0000
  Ge     Ge        0.835270204826518    0.870078188233418    0.672825592065617  0.0000
  Ge     Ge        0.060421861505098    0.849811915475567    0.308702901897892  0.0000
  Ge     Ge        0.052592082481380    0.052219659627706    0.286008530933790  0.0000
  Ge     Ge        0.836137842978518    0.070381362542357    0.648840847598503  0.0000
  Si     Si        0.745384826880561    0.050305224438692    0.293942285458652  0.0000
  O1     O1        0.506729959095724    0.200258376301524    0.931358342318504  0.0000
  O1     O1        0.498846551664306    0.721338474010127    0.924674951302646  0.0000
  O1     O1        0.998419136192625    0.708251475468165    0.924775023482399  0.0000
  O1     O1        0.005837679217352    0.222696200430019    0.924072455596685  0.0000
  O1     O1        0.277821854455523    0.129315615763578    0.743995091058201  0.0000
  O3     O3        0.637426326166968    0.111314805489449    0.190331360469540  0.0000
  O1     O1        0.628980615805510    0.784653144614306    0.209424552456510  0.0000
  O1     O1        0.273863143018493    0.814129797491640    0.786808724825997  0.0000
  O1     O1        0.772336607864033    0.632273880778003    0.742470279999163  0.0000
  O1     O1        0.120780401481348    0.611766714625668    0.178108781823067  0.0000
  O1     O1        0.137330423652592    0.275125631481283    0.217403728299754  0.0000
  O1     O1        0.782455250633913    0.317601485011983    0.789277153021585  0.0000
  O1     O1        0.286353733378879    0.302821996770340    0.795679921960279  0.0000
  O1     O1        0.634719207626674    0.288581808690764    0.198348028453864  0.0000
  O1     O1        0.610514917727613    0.608348034908177    0.158748017310997  0.0000
  O1     O1        0.267100524302451    0.638337042979717    0.750670726816481  0.0000
  O1     O1        0.774365545282428    0.806416286997314    0.786605146504867  0.0000
  O1     O1        0.131860791424704    0.788043846653532    0.201027415940919  0.0000
  O1     O1        0.100823834970190    0.103027978925182    0.148746941329393  0.0000
  O1     O1        0.770767725272959    0.143962370286537    0.743669081945643  0.0000
  O1     O1        0.277810067837039    0.194439305923140    0.031566821007315  0.0000
  O1     O1        0.783475458930662    0.208666999750980    0.031473849059291  0.0000
  O1     O1        0.772556077228202    0.700701158664524    0.028527245132736  0.0000
  O1     O1        0.275396507498683    0.707738482689827    0.031757924494653  0.0000
  O1     O1        0.392382758690932    0.345157532151361    0.249504423669006  0.0000
  O1     O1        0.516097348943466    0.369095159167353    0.732817292380430  0.0000
  O1     O1        0.507983853855123    0.573230558519254    0.710518998139206  0.0000
  O1     O1        0.380388949963325    0.544871690197045    0.224600342695044  0.0000
  O1     O1        0.887325181116254    0.844767226735684    0.244737429191306  0.0000
  O1     O1        0.008648557445499    0.871236756600457    0.730231963003738  0.0000
  O1     O1        0.009592561323764    0.076233558753257    0.706000567880209  0.0000
  O3     O3        0.878241892606898    0.044211293753674    0.234686163448358  0.0000
  O1     O1        0.295141539794472    0.324378484339200    0.500274353057738  0.0000
  O1     O1        0.615789221237673    0.319338654630944    0.491684675129466  0.0000
  O1     O1        0.598951399109102    0.601013685569639    0.456870911292958  0.0000
  O1     O1        0.284287420571454    0.589665330487783    0.466487575227518  0.0000
  O1     O1        0.786828240120990    0.830233867609753    0.494345624820994  0.0000
  O1     O1        0.106775888832695    0.818327107419882    0.491010087966437  0.0000
  O1     O1        0.108679799114139    0.101634002500259    0.455698907272046  0.0000
  O3     O3        0.788828822432601    0.088973091822622    0.459985396243271  0.0000
  O1     O1        0.181793391029966    0.446923153840693    0.293159937538338  0.0000
  O1     O1        0.703396545837411    0.468644819061064    0.642874014392228  0.0000
  O3     O3        0.685896074437888    0.956757463943108    0.293840341601717  0.0000
  O1     O1        0.200950185226219    0.966842501286654    0.642529063078574  0.0000
  O1     O1        0.283043503802678    0.466690529075219    0.678089398725898  0.0000
  O1     O1        0.616718527524875    0.452420281586129    0.297983453896891  0.0000
  O1     O1        0.781134676922092    0.971772190840272    0.679513461503157  0.0000
  O1     O1        0.113678685344921    0.951585223886585    0.299629790887849  0.0000
