data_image0
_chemical_formula_structural       Si2Ge22O48
_chemical_formula_sum              "Si2 Ge22 O48"
_cell_length_a       11.02683511318728
_cell_length_b       16.271928215634397
_cell_length_c       9.5749796345154
_cell_angle_alpha    89.8157179381482
_cell_angle_beta     105.79967402855418
_cell_angle_gamma    90.12381033847966

_space_group_name_H-M_alt    "P 1"
_space_group_IT_number       1

loop_
  _space_group_symop_operation_xyz
  'x, y, z'

loop_
  _atom_site_type_symbol
  _atom_site_label
  _atom_site_symmetry_multiplicity
  _atom_site_fract_x
  _atom_site_fract_y
  _atom_site_fract_z
  _atom_site_occupancy
  Si  Si1       1.0  0.31290763723250137  0.20497234472193526  0.8654926306553861  1.0000
  Si  Si2       1.0  0.18179961932106423  0.0636820162151456  0.6488544102635946  1.0000
  Ge  Ge1       1.0  0.6072951512212555  0.19947427209935695  0.0694036536768144  1.0000
  Ge  Ge2       1.0  0.6633368972171785  0.7082460864908344  0.0736610639912156  1.0000
  Ge  Ge3       1.0  0.3658864451880998  0.7177746774145992  0.8664983178998292  1.0000
  Ge  Ge4       1.0  0.8669046810697173  0.6995629732029912  0.8678855780893366  1.0000
  Ge  Ge5       1.0  0.16457548409204328  0.7108050868759194  0.07625782853954043  1.0000
  Ge  Ge6       1.0  0.1180037349788369  0.2162569585196257  0.07779452578290366  1.0000
  Ge  Ge7       1.0  0.8179298123116276  0.206985006498837  0.8684000092526502  1.0000
  Ge  Ge8       1.0  0.2836526975257889  0.359070622030264  0.30000589395203753  1.0000
  Ge  Ge9       1.0  0.6829192399444596  0.3523059410834199  0.643483179534126  1.0000
  Ge  Ge10      1.0  0.6913843245396524  0.5579471467091055  0.6477009009219165  1.0000
  Ge  Ge11      1.0  0.29392661186580327  0.563494818138231  0.3016057537932191  1.0000
  Ge  Ge12      1.0  0.7954021377825518  0.8547468386874805  0.2972249129644457  1.0000
  Ge  Ge13      1.0  0.1927834228045221  0.86226667695115  0.6488148707362814  1.0000
  Ge  Ge14      1.0  0.7856903113564999  0.061100487742549364  0.29637922353394297  1.0000
  Ge  Ge15      1.0  0.38209417633365916  0.35475378975143956  0.6632674819960991  1.0000
  Ge  Ge16      1.0  0.5848141608614561  0.35376447438154546  0.28213486365680235  1.0000
  Ge  Ge17      1.0  0.5939872543301321  0.5587559668502156  0.28521297577840027  1.0000
  Ge  Ge18      1.0  0.391321876785098  0.5599213904523174  0.6660739585993077  1.0000
  Ge  Ge19      1.0  0.8911398556328765  0.8536208665137469  0.6592979435706653  1.0000
  Ge  Ge20      1.0  0.09654452855914426  0.8600914131487924  0.285446926480867  1.0000
  Ge  Ge21      1.0  0.08909829012961717  0.06495920029526611  0.29164679813454836  1.0000
  Ge  Ge22      1.0  0.8842370990757241  0.05826322207566007  0.6571351553731078  1.0000
  O   O1        1.0  0.4419463121045233  0.18501861677293113  0.00013074874097582727  1.0000
  O   O2        1.0  0.5333934668550723  0.7270134266690201  0.9199741938750637  1.0000
  O   O3        1.0  0.03429216536063097  0.6903949252000834  0.9237145166537135  1.0000
  O   O4        1.0  0.950723574188715  0.22515595404414523  0.018561939160879525  1.0000
  O   O5        1.0  0.29105896902758616  0.12583245949038416  0.7496429574820894  1.0000
  O   O6        1.0  0.6515262233148554  0.11431334051207943  0.19043624870908107  1.0000
  O   O7        1.0  0.6698012075163378  0.7941665036120108  0.1910671110646969  1.0000
  O   O8        1.0  0.32490514463701553  0.8063291790869342  0.7529667880663322  1.0000
  O   O9        1.0  0.8249043534793278  0.6123354857213893  0.7521838075418954  1.0000
  O   O10       1.0  0.17073064791627432  0.6272558424182687  0.19945644383311167  1.0000
  O   O11       1.0  0.15237563385866462  0.305595574627945  0.1891025387041939  1.0000
  O   O12       1.0  0.8097764630056654  0.29187650257227554  0.7475649103996961  1.0000
  O   O13       1.0  0.31844868063754495  0.2948972880416091  0.7811663915354261  1.0000
  O   O14       1.0  0.645752903149665  0.29601355249944383  0.15924114279658497  1.0000
  O   O15       1.0  0.6614371403763994  0.6120933870676994  0.16293268205565226  1.0000
  O   O16       1.0  0.32273139347451635  0.6211408741446411  0.7781992477711359  1.0000
  O   O17       1.0  0.8223655410718798  0.7948923561923502  0.7749905685034967  1.0000
  O   O18       1.0  0.16423067397152386  0.8076426945088119  0.16299474306324024  1.0000
  O   O19       1.0  0.16249527368715175  0.12411625820588967  0.18084120392007055  1.0000
  O   O20       1.0  0.8197854786250917  0.1100655672401063  0.7829281238134232  1.0000
  O   O21       1.0  0.18791834345285838  0.21558379663916244  0.9314909824454929  1.0000
  O   O22       1.0  0.6759537973781138  0.19760604062693668  0.9218217039205341  1.0000
  O   O23       1.0  0.8055647217118176  0.6969840419003375  0.021214345797066207  1.0000
  O   O24       1.0  0.3057607786145913  0.7202189270226277  0.02092191904003199  1.0000
  O   O25       1.0  0.41758556930237456  0.3406918700102205  0.2335506098638672  1.0000
  O   O26       1.0  0.548218443656552  0.33733263922351153  0.7104684962998339  1.0000
  O   O27       1.0  0.5585821981018737  0.5742726104981237  0.7174451475043343  1.0000
  O   O28       1.0  0.4279123923330487  0.5761880113892247  0.2326693705024668  1.0000
  O   O29       1.0  0.9310707968853947  0.8401458701630103  0.2322487931779741  1.0000
  O   O30       1.0  0.0584203432451574  0.8402069506359404  0.7132025585095235  1.0000
  O   O31       1.0  0.05037432031613262  0.07361613351376722  0.7038758286726194  1.0000
  O   O32       1.0  0.9224110899618695  0.08162497673571854  0.2355541959152418  1.0000
  O   O33       1.0  0.30431731810906254  0.3239125667454649  0.48199195574128495  1.0000
  O   O34       1.0  0.6583351028314899  0.31738173884480175  0.46121424071029576  1.0000
  O   O35       1.0  0.6666583106386312  0.5935734779317168  0.46531834658740107  1.0000
  O   O36       1.0  0.32054340459631403  0.595279901178349  0.48563681616562104  1.0000
  O   O37       1.0  0.81986863941066  0.8187034638893711  0.47901916520107024  1.0000
  O   O38       1.0  0.17262904022892064  0.8281061609026235  0.4666236958068871  1.0000
  O   O39       1.0  0.15864781125173133  0.0936334215934743  0.47557378031755226  1.0000
  O   O40       1.0  0.8060991172208559  0.09436683914842191  0.4791080529747166  1.0000
  O   O41       1.0  0.22877066916564948  0.46254129823192963  0.27473006096744496  1.0000
  O   O42       1.0  0.7451020520701666  0.4540937106750688  0.6688232021581791  1.0000
  O   O43       1.0  0.734400558466935  0.9567256235032996  0.2708231165319282  1.0000
  O   O44       1.0  0.23895868887838864  0.967462993671913  0.6745647917377939  1.0000
  O   O45       1.0  0.34600333156130825  0.4580479738033529  0.7005904304793907  1.0000
  O   O46       1.0  0.6336393872154877  0.4554897640254478  0.25366718776806063  1.0000
  O   O47       1.0  0.8428854551227772  0.9551104287626687  0.6881791823181326  1.0000
  O   O48       1.0  0.13296278845043952  0.9639825832789016  0.252782612446419  1.0000
