data_image0
_chemical_formula_structural       Si2Ge22O48
_chemical_formula_sum              "Si2 Ge22 O48"
_cell_length_a       11.105234954738826
_cell_length_b       16.2709109497246
_cell_length_c       9.555210324679795
_cell_angle_alpha    89.99304423873471
_cell_angle_beta     105.60090610097132
_cell_angle_gamma    89.8786251178

_space_group_name_H-M_alt    "P 1"
_space_group_IT_number       1

loop_
  _space_group_symop_operation_xyz
  'x, y, z'

loop_
  _atom_site_type_symbol
  _atom_site_label
  _atom_site_symmetry_multiplicity
  _atom_site_fract_x
  _atom_site_fract_y
  _atom_site_fract_z
  _atom_site_occupancy
  Si  Si1       1.0  0.26767459166253427  0.362497363156462  0.305237800625709  1.0000
  Si  Si2       1.0  0.5547239722790644  0.3620107972990002  0.2904151794419246  1.0000
  Ge  Ge1       1.0  0.33106421442657463  0.2059308293572327  0.8713743165904261  1.0000
  Ge  Ge2       1.0  0.6247589167040686  0.21485743654323103  0.08427874580288996  1.0000
  Ge  Ge3       1.0  0.628403497009848  0.7139840792786655  0.08315298950551057  1.0000
  Ge  Ge4       1.0  0.3317626551324095  0.7180241100784686  0.8754993667459778  1.0000
  Ge  Ge5       1.0  0.8311773513951906  0.7054208867424092  0.8748731261684328  1.0000
  Ge  Ge6       1.0  0.12725817686359897  0.709285114653527  0.08165579080677465  1.0000
  Ge  Ge7       1.0  0.1295173062370976  0.2192750903335082  0.084042957431884  1.0000
  Ge  Ge8       1.0  0.8308013115529719  0.22205870662621824  0.8780835127878501  1.0000
  Ge  Ge9       1.0  0.655663499750412  0.3584505544942402  0.6443993170933734  1.0000
  Ge  Ge10      1.0  0.6576973170404301  0.5645511400605536  0.6510492988120999  1.0000
  Ge  Ge11      1.0  0.2621742063702332  0.5631291353726866  0.30459479459152133  1.0000
  Ge  Ge12      1.0  0.7601389967918364  0.8624791534128495  0.30500644409774574  1.0000
  Ge  Ge13      1.0  0.15657389734174895  0.8581933899702194  0.6510116222659379  1.0000
  Ge  Ge14      1.0  0.15809098334072277  0.0650983315212099  0.6520721349417468  1.0000
  Ge  Ge15      1.0  0.761464760476539  0.06695806439335146  0.3093070597275267  1.0000
  Ge  Ge16      1.0  0.35963258147026134  0.35948010721373713  0.6622879597223196  1.0000
  Ge  Ge17      1.0  0.5596398038359852  0.5635025116331788  0.2902686230913119  1.0000
  Ge  Ge18      1.0  0.3596928695096477  0.5639359564305568  0.668415108830373  1.0000
  Ge  Ge19      1.0  0.8598600546235254  0.8606842695540622  0.6707421379699666  1.0000
  Ge  Ge20      1.0  0.059189415056052505  0.8612454801378612  0.2894820437195047  1.0000
  Ge  Ge21      1.0  0.06029503067507915  0.06686045682590551  0.2911602977821245  1.0000
  Ge  Ge22      1.0  0.8614004411735472  0.06578237529357998  0.6749059365433404  1.0000
  O   O1        1.0  0.4963307368782904  0.19278363582880229  0.9321073909152076  1.0000
  O   O2        1.0  0.4967459560846885  0.7330462478444343  0.9328401732854148  1.0000
  O   O3        1.0  0.9964015185048498  0.690977952148286  0.9303575541678049  1.0000
  O   O4        1.0  0.9940430555287908  0.24312002773141714  0.9414555211720346  1.0000
  O   O5        1.0  0.2912700316377877  0.11769816807333482  0.757994488527057  1.0000
  O   O6        1.0  0.6385800737033768  0.13052249734504012  0.20744788382022686  1.0000
  O   O7        1.0  0.6369175081432672  0.7994150796208987  0.20309051595115277  1.0000
  O   O8        1.0  0.28843150075801477  0.8026056616579789  0.7534531960737609  1.0000
  O   O9        1.0  0.7886406592688053  0.619830506985957  0.7554414840768341  1.0000
  O   O10       1.0  0.13559414821727603  0.6229718482244253  0.19969413986308981  1.0000
  O   O11       1.0  0.15288711436363644  0.30378353608328057  0.20678068882870493  1.0000
  O   O12       1.0  0.7857379135090075  0.2992269451147366  0.7412299203004241  1.0000
  O   O13       1.0  0.2881882180533681  0.29995611838508734  0.7738918999363542  1.0000
  O   O14       1.0  0.6091714368875075  0.3091720028298355  0.17154673880341598  1.0000
  O   O15       1.0  0.6271329912706812  0.6163341222279026  0.16773028617723118  1.0000
  O   O16       1.0  0.2925633812630361  0.621034936834537  0.7873178332221963  1.0000
  O   O17       1.0  0.7906225043504584  0.8021547768621847  0.7857281477708702  1.0000
  O   O18       1.0  0.1244531662317674  0.8064617891365823  0.1670362026980506  1.0000
  O   O19       1.0  0.12491160685326685  0.12210677395110293  0.16879526095653616  1.0000
  O   O20       1.0  0.7992282085628977  0.12197609512052378  0.799426636020547  1.0000
  O   O21       1.0  0.2660960469637343  0.20680887685134663  0.022084891696003937  1.0000
  O   O22       1.0  0.7625560377524204  0.23084328808840665  0.025879020598716402  1.0000
  O   O23       1.0  0.768567266478839  0.7039538552510056  0.02746641026995673  1.0000
  O   O24       1.0  0.2675552695459037  0.7205966238489326  0.026755798975044178  1.0000
  O   O25       1.0  0.39926586982492185  0.35210244242312455  0.2531474004708284  1.0000
  O   O26       1.0  0.5244171314785255  0.34058545923038125  0.7150942189434535  1.0000
  O   O27       1.0  0.5246011732681374  0.5818860236263724  0.7186508079311066  1.0000
  O   O28       1.0  0.39521745050484375  0.5826738380480743  0.23817392078454735  1.0000
  O   O29       1.0  0.8936341915073573  0.847441582315538  0.23724072070525565  1.0000
  O   O30       1.0  0.0245037867015234  0.8412606580045738  0.720462353728455  1.0000
  O   O31       1.0  0.026259940919596336  0.08371802001198815  0.7213543407191338  1.0000
  O   O32       1.0  0.8951323110544567  0.0831417848306835  0.24239664597432867  1.0000
  O   O33       1.0  0.28848372967841435  0.3322745529822561  0.47818492495265336  1.0000
  O   O34       1.0  0.6254918153911544  0.32823967900199835  0.4588275591819347  1.0000
  O   O35       1.0  0.6336583793603631  0.6001477536456712  0.46875647718518715  1.0000
  O   O36       1.0  0.2837043439479996  0.5964811886584351  0.487778004015794  1.0000
  O   O37       1.0  0.7842094456429978  0.8301262465094781  0.48905410482965855  1.0000
  O   O38       1.0  0.13030262070609905  0.8233544138590924  0.46801065050310225  1.0000
  O   O39       1.0  0.13379821038871248  0.10224536036053905  0.4706441888164349  1.0000
  O   O40       1.0  0.7841630335464805  0.09779129229995083  0.49412465608900913  1.0000
  O   O41       1.0  0.21175719412031294  0.45901409837601276  0.27976806822601985  1.0000
  O   O42       1.0  0.7129824328328755  0.46111385961162  0.6740701560703158  1.0000
  O   O43       1.0  0.7007399198238535  0.9650483561677577  0.27713661369641135  1.0000
  O   O44       1.0  0.21194901359156576  0.9614098613259148  0.67247676906692  1.0000
  O   O45       1.0  0.3204711752944355  0.4612631753728294  0.7042411584225178  1.0000
  O   O46       1.0  0.5960283743543782  0.45887146925341465  0.26585861356528745  1.0000
  O   O47       1.0  0.8222696068895675  0.9630994646540489  0.7109254146008072  1.0000
  O   O48       1.0  0.10310765152924088  0.9640055732280728  0.2609710057141271  1.0000
