data_image0
_chemical_formula_structural       Si2Ge22O48
_chemical_formula_sum              "Si2 Ge22 O48"
_cell_length_a       11.103777628530636
_cell_length_b       16.263377311638582
_cell_length_c       9.566633037500763
_cell_angle_alpha    90.03189899707138
_cell_angle_beta     105.65629305688034
_cell_angle_gamma    89.85635473132447

_space_group_name_H-M_alt    "P 1"
_space_group_IT_number       1

loop_
  _space_group_symop_operation_xyz
  'x, y, z'

loop_
  _atom_site_type_symbol
  _atom_site_label
  _atom_site_symmetry_multiplicity
  _atom_site_fract_x
  _atom_site_fract_y
  _atom_site_fract_z
  _atom_site_occupancy
  Si  Si1       1.0  0.26179973621386254  0.3631975735622733  0.30687538283695204  1.0000
  Si  Si2       1.0  0.3571144585066793  0.5640926338917599  0.6672296643396397  1.0000
  Ge  Ge1       1.0  0.3300157841525889  0.2089271765012018  0.8712868012153598  1.0000
  Ge  Ge2       1.0  0.6250430679421725  0.2137435493270422  0.0804995865866849  1.0000
  Ge  Ge3       1.0  0.624674570653076  0.7172159465862561  0.08270565711685542  1.0000
  Ge  Ge4       1.0  0.3284301549897456  0.7155349034976889  0.8705449157636702  1.0000
  Ge  Ge5       1.0  0.8281745949866215  0.7068520265945353  0.8765423048863075  1.0000
  Ge  Ge6       1.0  0.1254384746520413  0.7081011065737023  0.08207846116203786  1.0000
  Ge  Ge7       1.0  0.13066553342604786  0.219634847464403  0.08567916428373512  1.0000
  Ge  Ge8       1.0  0.8327691167553738  0.22219617135325578  0.8783577801644015  1.0000
  Ge  Ge9       1.0  0.6552000915411053  0.35981947699400324  0.6506463102041753  1.0000
  Ge  Ge10      1.0  0.6493435494749075  0.5667953157291182  0.6522079224372733  1.0000
  Ge  Ge11      1.0  0.2607218158168886  0.563287142057439  0.30958973989674277  1.0000
  Ge  Ge12      1.0  0.7595156876719779  0.8632645292820338  0.30407335261142837  1.0000
  Ge  Ge13      1.0  0.1559265426566077  0.859172979665042  0.6492709623869591  1.0000
  Ge  Ge14      1.0  0.1582068129989974  0.0657973032783112  0.6515276008061504  1.0000
  Ge  Ge15      1.0  0.7616486318640064  0.06834205542169  0.30672658336070263  1.0000
  Ge  Ge16      1.0  0.35842399720179985  0.3631161300919051  0.6641976922333165  1.0000
  Ge  Ge17      1.0  0.5552621681234962  0.3625739357310856  0.29245084765581125  1.0000
  Ge  Ge18      1.0  0.5576977582606338  0.5678481722021711  0.2936566228638899  1.0000
  Ge  Ge19      1.0  0.8584435175471027  0.8613848431285117  0.6686139069284947  1.0000
  Ge  Ge20      1.0  0.05861252779138125  0.8611490438769781  0.287098723978324  1.0000
  Ge  Ge21      1.0  0.060580760314309014  0.06693842562399246  0.2896671224414445  1.0000
  Ge  Ge22      1.0  0.8605997172444526  0.06671574312783302  0.6711422112876718  1.0000
  O   O1        1.0  0.49524769113756956  0.1938630684794334  0.9287111865188893  1.0000
  O   O2        1.0  0.4930730209522539  0.7321177263859083  0.9308267738195032  1.0000
  O   O3        1.0  0.9925664240839186  0.6884755367293421  0.9336573058590903  1.0000
  O   O4        1.0  0.9966841525147562  0.24112274759158317  0.9395534479269574  1.0000
  O   O5        1.0  0.28880618549579684  0.12131032446188571  0.7563202152222606  1.0000
  O   O6        1.0  0.6363623776501153  0.1299114857950225  0.20407501297798855  1.0000
  O   O7        1.0  0.6324935204728862  0.803915378712318  0.19963683706227509  1.0000
  O   O8        1.0  0.28544324056880066  0.8015580092593846  0.7519183037395748  1.0000
  O   O9        1.0  0.7803348874866588  0.6206399349331153  0.7600996655315718  1.0000
  O   O10       1.0  0.13556799798331676  0.6257190182513637  0.20846241375792407  1.0000
  O   O11       1.0  0.14757291060032196  0.3031869556145172  0.21014569407480382  1.0000
  O   O12       1.0  0.7882350499319758  0.3054879599098086  0.7537850156477879  1.0000
  O   O13       1.0  0.2879778255101355  0.30432296968820394  0.7776791549006993  1.0000
  O   O14       1.0  0.6162451233756466  0.3109643112716643  0.1631197364002471  1.0000
  O   O15       1.0  0.6252854001983814  0.620994942255764  0.17198518654735026  1.0000
  O   O16       1.0  0.29420062794901136  0.6200918401454004  0.7763015841513099  1.0000
  O   O17       1.0  0.7910902480698512  0.8034073190540894  0.7857001569498446  1.0000
  O   O18       1.0  0.12374070999339636  0.8064880962759613  0.16427892440278066  1.0000
  O   O19       1.0  0.12746379655223544  0.12197163511581548  0.16929169746576278  1.0000
  O   O20       1.0  0.7969926371024098  0.1241584601581534  0.7927285297204638  1.0000
  O   O21       1.0  0.26779757530736414  0.20950681357282208  0.024058456600838118  1.0000
  O   O22       1.0  0.7661922239099762  0.22505986355263927  0.02758486327498086  1.0000
  O   O23       1.0  0.7658536251298235  0.7083466913340333  0.029055152328303115  1.0000
  O   O24       1.0  0.2632619134267861  0.7143172983578349  0.020987921656951663  1.0000
  O   O25       1.0  0.38963305245673796  0.3511448615236781  0.24672424153324174  1.0000
  O   O26       1.0  0.5227097556229422  0.34217043904433764  0.7189265966422617  1.0000
  O   O27       1.0  0.5127863401896094  0.580524940034991  0.7139508742474653  1.0000
  O   O28       1.0  0.3920884911083163  0.582018507216991  0.23978735314249816  1.0000
  O   O29       1.0  0.8931345299028008  0.8464068528033205  0.23730930471586462  1.0000
  O   O30       1.0  0.02323085001748333  0.8423384281460803  0.7174651530154792  1.0000
  O   O31       1.0  0.025713940595393912  0.08381953776690027  0.7197081683023966  1.0000
  O   O32       1.0  0.8955629008333083  0.08425681299930216  0.24029956487537715  1.0000
  O   O33       1.0  0.28721795696364344  0.33429790920429436  0.48082862917212016  1.0000
  O   O34       1.0  0.629895098026923  0.3231855526021133  0.46886789045954635  1.0000
  O   O35       1.0  0.6273942060617168  0.6056155473293539  0.47237526291553755  1.0000
  O   O36       1.0  0.2887658572305545  0.5922717958879598  0.49537961311791273  1.0000
  O   O37       1.0  0.7826513377022559  0.8300930616568505  0.4873957012600827  1.0000
  O   O38       1.0  0.13148899780375375  0.8249747653034714  0.46626696430143294  1.0000
  O   O39       1.0  0.1345947032407778  0.10138415007334742  0.4695155039707222  1.0000
  O   O40       1.0  0.7849748022972637  0.10005565032741628  0.49094393920305396  1.0000
  O   O41       1.0  0.20654674775970785  0.45992698161865864  0.2810150429464545  1.0000
  O   O42       1.0  0.7072015038335335  0.4638583179464029  0.670718978520938  1.0000
  O   O43       1.0  0.7017676744432201  0.9661861630617568  0.277136187492398  1.0000
  O   O44       1.0  0.2126961430088869  0.9621256558647101  0.6746588934435532  1.0000
  O   O45       1.0  0.3230211916688202  0.46668307165244705  0.699376345544467  1.0000
  O   O46       1.0  0.6031416001895566  0.4649356139052437  0.2685235951788785  1.0000
  O   O47       1.0  0.8199845129208078  0.9641639200958935  0.706135064965203  1.0000
  O   O48       1.0  0.10137173828400135  0.9639470840421616  0.2570287137214511  1.0000
