data_image0
_chemical_formula_structural       Si2Ge22O48
_chemical_formula_sum              "Si2 Ge22 O48"
_cell_length_a       11.049616769499815
_cell_length_b       16.27657367038571
_cell_length_c       9.58025847809927
_cell_angle_alpha    89.95015663729298
_cell_angle_beta     105.83004013830113
_cell_angle_gamma    90.27871509542362

_space_group_name_H-M_alt    "P 1"
_space_group_IT_number       1

loop_
  _space_group_symop_operation_xyz
  'x, y, z'

loop_
  _atom_site_type_symbol
  _atom_site_label
  _atom_site_symmetry_multiplicity
  _atom_site_fract_x
  _atom_site_fract_y
  _atom_site_fract_z
  _atom_site_occupancy
  Si  Si1       1.0  0.33502445212796833  0.20665289201233147  0.8728268771588632  1.0000
  Si  Si2       1.0  0.16104755835993392  0.8647407290680119  0.6565634364160523  1.0000
  Ge  Ge1       1.0  0.6284340094698919  0.2128165644027408  0.07733845390038356  1.0000
  Ge  Ge2       1.0  0.6272710163784965  0.7180268506597213  0.07753756689234634  1.0000
  Ge  Ge3       1.0  0.3299944211627287  0.7228157718664391  0.8717671610648035  1.0000
  Ge  Ge4       1.0  0.8345049287307861  0.7110140929442029  0.8741636974223825  1.0000
  Ge  Ge5       1.0  0.13317498427781813  0.7119128397525515  0.08683945383646452  1.0000
  Ge  Ge6       1.0  0.136388892855547  0.2139969783385285  0.07793326903721674  1.0000
  Ge  Ge7       1.0  0.8352293517390491  0.22210424093894912  0.8717908478615171  1.0000
  Ge  Ge8       1.0  0.2655014686065424  0.360312774329744  0.3069906378695134  1.0000
  Ge  Ge9       1.0  0.6634968627421445  0.3630442035241462  0.6516785887047711  1.0000
  Ge  Ge10      1.0  0.6601408153308885  0.5698711729620857  0.6497426097888793  1.0000
  Ge  Ge11      1.0  0.26198614298702794  0.5634503403932136  0.30571026687785235  1.0000
  Ge  Ge12      1.0  0.7670885930058222  0.8620149264232114  0.3045055732410116  1.0000
  Ge  Ge13      1.0  0.1642737651541765  0.0672773144936942  0.6545017337243129  1.0000
  Ge  Ge14      1.0  0.7684719307010087  0.06753820457905053  0.3009356289356066  1.0000
  Ge  Ge15      1.0  0.36467878397497916  0.36002998231984223  0.6719410462733147  1.0000
  Ge  Ge16      1.0  0.5664350931132535  0.3623094873305139  0.29195442851477194  1.0000
  Ge  Ge17      1.0  0.5628316842987156  0.5672445011981827  0.2899163617934794  1.0000
  Ge  Ge18      1.0  0.3616787491255666  0.5652355938438478  0.6706849328812718  1.0000
  Ge  Ge19      1.0  0.8653506837218541  0.8647035187282057  0.6671878527090833  1.0000
  Ge  Ge20      1.0  0.06883902711871298  0.8614837805901046  0.3004153573971283  1.0000
  Ge  Ge21      1.0  0.07129005970459194  0.06679268500012302  0.29268368669660516  1.0000
  Ge  Ge22      1.0  0.8624222262579775  0.06922727744084001  0.6641020890222662  1.0000
  O   O1        1.0  0.491328224066365  0.19548827259575877  0.9326374070739395  1.0000
  O   O2        1.0  0.4961195017226506  0.7390977239490016  0.926790213344689  1.0000
  O   O3        1.0  0.000819888159287224  0.6986978822511648  0.9340692809587745  1.0000
  O   O4        1.0  0.002050443933480882  0.2322393708078185  0.9298387627384841  1.0000
  O   O5        1.0  0.2914786399945476  0.12536483869606793  0.7629010248540447  1.0000
  O   O6        1.0  0.6408792190866818  0.12544549741952984  0.19329036558619034  1.0000
  O   O7        1.0  0.639345032841286  0.8021407056886757  0.20035070258813417  1.0000
  O   O8        1.0  0.27879669949588776  0.8086194236810801  0.7559015220230122  1.0000
  O   O9        1.0  0.7922378416016035  0.6262012848466059  0.7526239811400547  1.0000
  O   O10       1.0  0.13686583930455826  0.6236628951448604  0.19892022243252266  1.0000
  O   O11       1.0  0.14299997596859412  0.2973044442831889  0.20105744834297817  1.0000
  O   O12       1.0  0.7972282147400732  0.3100499172530596  0.7572856039376671  1.0000
  O   O13       1.0  0.299750712015783  0.2970113450784751  0.784818250795034  1.0000
  O   O14       1.0  0.6309208001322716  0.30855818093614074  0.16840754211446768  1.0000
  O   O15       1.0  0.6233385586869044  0.6208349104898193  0.1622152619029127  1.0000
  O   O16       1.0  0.2922574686335149  0.6257336167137374  0.7827198050885505  1.0000
  O   O17       1.0  0.7975751210054495  0.8081035719898282  0.7860914876042081  1.0000
  O   O18       1.0  0.14165978700108567  0.8045683497599789  0.18815607461134362  1.0000
  O   O19       1.0  0.13902797077648654  0.11787266713294255  0.16833803583803403  1.0000
  O   O20       1.0  0.7915205671233878  0.12700699100480015  0.7779697571727853  1.0000
  O   O21       1.0  0.2716527171019459  0.20730602409809654  0.012186801990601643  1.0000
  O   O22       1.0  0.7680887351170819  0.22430166171971547  0.020224436503053094  1.0000
  O   O23       1.0  0.7684620580326365  0.7074237652852933  0.02345424304115901  1.0000
  O   O24       1.0  0.2719176139713028  0.7224781617217355  0.02745563559145395  1.0000
  O   O25       1.0  0.3999934844107852  0.3474117552563117  0.23993742555770672  1.0000
  O   O26       1.0  0.5312490090362049  0.3448951973094394  0.7213095110257355  1.0000
  O   O27       1.0  0.5274510679840454  0.5847471705564606  0.7196303959601731  1.0000
  O   O28       1.0  0.3959303607248183  0.5786057515593284  0.23814795918753529  1.0000
  O   O29       1.0  0.9030556867384724  0.8435957605106301  0.24237354530163355  1.0000
  O   O30       1.0  0.03169310493964009  0.850946054594219  0.7146303152037374  1.0000
  O   O31       1.0  0.028471648530558873  0.08722520992661367  0.716248345638343  1.0000
  O   O32       1.0  0.9056129626783482  0.08484806839701027  0.24006120808441672  1.0000
  O   O33       1.0  0.2894540752901892  0.32800259832475676  0.49059824934546764  1.0000
  O   O34       1.0  0.6382550392102826  0.32540406296021  0.4707948046700879  1.0000
  O   O35       1.0  0.6335869199940349  0.6062270204900513  0.46783212903669025  1.0000
  O   O36       1.0  0.2859145519579242  0.5961792866456208  0.489083696714578  1.0000
  O   O37       1.0  0.7885353725864145  0.8300927082563099  0.48797023815485063  1.0000
  O   O38       1.0  0.13675245954770932  0.8326339151523173  0.4844804802350914  1.0000
  O   O39       1.0  0.14616914127958486  0.10148024296581162  0.47256363965902815  1.0000
  O   O40       1.0  0.7881685609652678  0.10145477846318927  0.48298003187514715  1.0000
  O   O41       1.0  0.20112685490493104  0.4612394026534757  0.2782454127975062  1.0000
  O   O42       1.0  0.7170343845593308  0.46700710603056744  0.6699843388476193  1.0000
  O   O43       1.0  0.7102502386290288  0.9646816873583772  0.27312498861816104  1.0000
  O   O44       1.0  0.21176118768081628  0.9625411973491318  0.6788080266523049  1.0000
  O   O45       1.0  0.32435831163911294  0.46229552340849184  0.7096642878150087  1.0000
  O   O46       1.0  0.611729131375452  0.4652242773503497  0.26593151244360935  1.0000
  O   O47       1.0  0.82157994488517  0.9667484483539502  0.6997901697428722  1.0000
  O   O48       1.0  0.11114789657867236  0.9634175283706954  0.26375235253222695  1.0000
