data_image0
_chemical_formula_structural       Si2Ge22O48
_chemical_formula_sum              "Si2 Ge22 O48"
_cell_length_a       11.114728362955518
_cell_length_b       16.274308516981137
_cell_length_c       9.534603969939173
_cell_angle_alpha    90.01395880970443
_cell_angle_beta     105.49451637195205
_cell_angle_gamma    90.02190032161836

_space_group_name_H-M_alt    "P 1"
_space_group_IT_number       1

loop_
  _space_group_symop_operation_xyz
  'x, y, z'

loop_
  _atom_site_type_symbol
  _atom_site_label
  _atom_site_symmetry_multiplicity
  _atom_site_fract_x
  _atom_site_fract_y
  _atom_site_fract_z
  _atom_site_occupancy
  Si  Si1       1.0  0.3795989038583457  0.35982985666627754  0.6626729804068762  1.0000
  Si  Si2       1.0  0.8791199764950551  0.061781990677520895  0.6621243235166052  1.0000
  Ge  Ge1       1.0  0.31168007477691523  0.21207525916659956  0.8681546580562508  1.0000
  Ge  Ge2       1.0  0.607442212176642  0.2014090804674972  0.07771124627213719  1.0000
  Ge  Ge3       1.0  0.648208314008948  0.7121277568192317  0.07311737194832263  1.0000
  Ge  Ge4       1.0  0.3526556797883117  0.7166850669529633  0.8660428066507657  1.0000
  Ge  Ge5       1.0  0.8526358221032019  0.7047661746315445  0.8661602823505066  1.0000
  Ge  Ge6       1.0  0.1482793108956983  0.7085411018505184  0.07301107928145212  1.0000
  Ge  Ge7       1.0  0.10748101619555585  0.21940261799997016  0.07769874111735182  1.0000
  Ge  Ge8       1.0  0.8116376241688545  0.20962688832534734  0.8681663287736298  1.0000
  Ge  Ge9       1.0  0.28011361277311014  0.3581068244129978  0.30540371726468  1.0000
  Ge  Ge10      1.0  0.6710017720800746  0.3571861693246934  0.643698578483421  1.0000
  Ge  Ge11      1.0  0.6788937207317346  0.5624775859243993  0.6444592002540918  1.0000
  Ge  Ge12      1.0  0.28194835677258684  0.5631695488135976  0.2989002587227454  1.0000
  Ge  Ge13      1.0  0.7820091713081035  0.8572799954191689  0.2998261257107758  1.0000
  Ge  Ge14      1.0  0.17925136242225514  0.859200193059264  0.6451859276550533  1.0000
  Ge  Ge15      1.0  0.1708042364392775  0.06451422427932599  0.6430832357917191  1.0000
  Ge  Ge16      1.0  0.779616942877819  0.06243653908227372  0.30484203374465413  1.0000
  Ge  Ge17      1.0  0.5752560520498602  0.35628209814387846  0.28067610750198274  1.0000
  Ge  Ge18      1.0  0.5792146896040996  0.5615181960497873  0.28089743435719083  1.0000
  Ge  Ge19      1.0  0.38228000816164437  0.5613929422343551  0.66228393362146  1.0000
  Ge  Ge20      1.0  0.8823530348952779  0.8601966393488469  0.6632010315417308  1.0000
  Ge  Ge21      1.0  0.07940005393745768  0.8590834195961511  0.28151316009348043  1.0000
  Ge  Ge22      1.0  0.07502257535655636  0.06442930845632461  0.27995028195302457  1.0000
  O   O1        1.0  0.44283721405947296  0.18651691200869372  0.014800651383343612  1.0000
  O   O2        1.0  0.5173882952872595  0.7324382945686232  0.9228728972932255  1.0000
  O   O3        1.0  0.017292810141252463  0.6887825232738269  0.9226309939162853  1.0000
  O   O4        1.0  0.9429689332674943  0.23470321106171485  0.015016175154174154  1.0000
  O   O5        1.0  0.2940737608955239  0.12657107803296017  0.7470600447700083  1.0000
  O   O6        1.0  0.6489347053371385  0.1212761849054895  0.2094485716208204  1.0000
  O   O7        1.0  0.6571781492210839  0.7960430250751003  0.19641133683574652  1.0000
  O   O8        1.0  0.30963422107348104  0.8016152579144266  0.7447283466092744  1.0000
  O   O9        1.0  0.8092049572119401  0.6204395294145865  0.7433900436238419  1.0000
  O   O10       1.0  0.15695717675312998  0.6239664976204436  0.1948299745171527  1.0000
  O   O11       1.0  0.14957898013518425  0.2987067588210512  0.21108559127705642  1.0000
  O   O12       1.0  0.7945484508105133  0.29568053103920483  0.7483924055881478  1.0000
  O   O13       1.0  0.32102687266473984  0.3065202602801913  0.7778195634678778  1.0000
  O   O14       1.0  0.6419204714180601  0.3005717374056626  0.15935766326529924  1.0000
  O   O15       1.0  0.6457170783155348  0.6146572815768737  0.15757943477180691  1.0000
  O   O16       1.0  0.3148926999863175  0.6185152037943435  0.7813178929687897  1.0000
  O   O17       1.0  0.8155530444933173  0.8033761822016827  0.7831258687895919  1.0000
  O   O18       1.0  0.14615842768075024  0.8056783347447868  0.15873385796509934  1.0000
  O   O19       1.0  0.1411001818138745  0.11982727582935042  0.15774486595690232  1.0000
  O   O20       1.0  0.8205436919534262  0.11542711312788892  0.7768433358812742  1.0000
  O   O21       1.0  0.17603682369300194  0.2292369979374252  0.930222937642358  1.0000
  O   O22       1.0  0.6759982361633993  0.19215853325816248  0.9301337431707148  1.0000
  O   O23       1.0  0.7884314369874068  0.7015450526587359  0.01785160845288642  1.0000
  O   O24       1.0  0.28846362645136536  0.719464937429513  0.017762483987372617  1.0000
  O   O25       1.0  0.41010474378851536  0.3397957512979424  0.2323943846958317  1.0000
  O   O26       1.0  0.5346883199021378  0.34499979068563946  0.7065113662752924  1.0000
  O   O27       1.0  0.546878909416444  0.5800572700117176  0.7139351454954304  1.0000
  O   O28       1.0  0.4145584417223319  0.5783905880916219  0.2294945662002761  1.0000
  O   O29       1.0  0.9149786917191131  0.8411747024188798  0.23146554245321957  1.0000
  O   O30       1.0  0.04683548137171656  0.8412213633800645  0.7137447275965081  1.0000
  O   O31       1.0  0.03400436295267699  0.07733699229540048  0.7046894302599294  1.0000
  O   O32       1.0  0.9099988635005076  0.08124784600944769  0.2327633596509194  1.0000
  O   O33       1.0  0.3111331484415044  0.3289811659499605  0.49194247436202915  1.0000
  O   O34       1.0  0.6489019400517047  0.3220285918745435  0.4610696981956265  1.0000
  O   O35       1.0  0.6531153411863764  0.5965116125995795  0.4606709763134846  1.0000
  O   O36       1.0  0.308185832831211  0.5968768657465716  0.4828156187071848  1.0000
  O   O37       1.0  0.8071901349892974  0.8245701369524734  0.48409548262749025  1.0000
  O   O38       1.0  0.15464282560746376  0.8251677449144135  0.46152084793478404  1.0000
  O   O39       1.0  0.1497279259252992  0.09868502210887985  0.4600874776768532  1.0000
  O   O40       1.0  0.8094692708631571  0.09164127467218115  0.4912486330556165  1.0000
  O   O41       1.0  0.22261581970166902  0.46078635487999425  0.2744059378677064  1.0000
  O   O42       1.0  0.7332098526701719  0.45888501561724293  0.6696438074431361  1.0000
  O   O43       1.0  0.722779252884145  0.9595964360438759  0.27349676758319286  1.0000
  O   O44       1.0  0.23305999394823826  0.9629163656267353  0.6709861091008971  1.0000
  O   O45       1.0  0.3438360692685726  0.45763238800296896  0.6903089469397484  1.0000
  O   O46       1.0  0.6190627927290648  0.458430884436752  0.24851267945047031  1.0000
  O   O47       1.0  0.8445276951478591  0.9639972797281058  0.6917164011107083  1.0000
  O   O48       1.0  0.11780522746379576  0.9621700211500257  0.247102865256456  1.0000
