data_image0
_chemical_formula_structural       Si2Ge22O48
_chemical_formula_sum              "Si2 Ge22 O48"
_cell_length_a       11.104331166214154
_cell_length_b       16.267681133899607
_cell_length_c       9.56543200716476
_cell_angle_alpha    89.98455829303647
_cell_angle_beta     105.67148523151478
_cell_angle_gamma    89.87671081789794

_space_group_name_H-M_alt    "P 1"
_space_group_IT_number       1

loop_
  _space_group_symop_operation_xyz
  'x, y, z'

loop_
  _atom_site_type_symbol
  _atom_site_label
  _atom_site_symmetry_multiplicity
  _atom_site_fract_x
  _atom_site_fract_y
  _atom_site_fract_z
  _atom_site_occupancy
  Si  Si1       1.0  0.2627348954706316  0.3628302274855905  0.3044781443147331  1.0000
  Si  Si2       1.0  0.8608156355319396  0.06589164931756701  0.670409175428663  1.0000
  Ge  Ge1       1.0  0.33018889938755097  0.20563207151378296  0.873970608127044  1.0000
  Ge  Ge2       1.0  0.6259816607059148  0.21192507691412663  0.08085912885763429  1.0000
  Ge  Ge3       1.0  0.6253375485166636  0.7179485849280833  0.08153626748616209  1.0000
  Ge  Ge4       1.0  0.3282864490249868  0.7180751981441834  0.8746654133060356  1.0000
  Ge  Ge5       1.0  0.8279578757400331  0.7094924388278544  0.8732668372093256  1.0000
  Ge  Ge6       1.0  0.1244908002079394  0.7102875102402905  0.08136317778783349  1.0000
  Ge  Ge7       1.0  0.12985451823511046  0.2194422224128959  0.08604714041211867  1.0000
  Ge  Ge8       1.0  0.8325328016784914  0.21885340900268038  0.8731905408788182  1.0000
  Ge  Ge9       1.0  0.6570312260043255  0.35949228555503165  0.6481108687086274  1.0000
  Ge  Ge10      1.0  0.6550778813568126  0.5665537709907696  0.6517740148770468  1.0000
  Ge  Ge11      1.0  0.25981982829861094  0.5638841843645501  0.30431743442244125  1.0000
  Ge  Ge12      1.0  0.7578255620537774  0.8646088947345303  0.30439705943334683  1.0000
  Ge  Ge13      1.0  0.1533226351929049  0.8585517019004291  0.6503453645845565  1.0000
  Ge  Ge14      1.0  0.15290917662617357  0.06500156197109709  0.6527934348290272  1.0000
  Ge  Ge15      1.0  0.7630057566365477  0.06836461570977537  0.31240235527100013  1.0000
  Ge  Ge16      1.0  0.3592790156292012  0.359313737625283  0.6622482443284389  1.0000
  Ge  Ge17      1.0  0.5559239958355794  0.36225962393423616  0.28784642034324515  1.0000
  Ge  Ge18      1.0  0.5581774553898934  0.5675197630326383  0.2906119002218574  1.0000
  Ge  Ge19      1.0  0.3572470101217256  0.5639980014398054  0.6685722006968643  1.0000
  Ge  Ge20      1.0  0.8572289130774318  0.8644214161557827  0.6688135149234864  1.0000
  Ge  Ge21      1.0  0.057127032968719786  0.862033486502448  0.28961233016137844  1.0000
  Ge  Ge22      1.0  0.060867179654323436  0.06770055678951928  0.29322901540713653  1.0000
  O   O1        1.0  0.49490868664722654  0.1885757943106212  0.9323415816667887  1.0000
  O   O2        1.0  0.49310824602497016  0.7342666213320586  0.9308489280905399  1.0000
  O   O3        1.0  0.9929480906981473  0.6933748638350148  0.9301291616313531  1.0000
  O   O4        1.0  0.9961446621312642  0.2383888637527894  0.9381573273250291  1.0000
  O   O5        1.0  0.2845565826031489  0.11685283633057908  0.7636997843882701  1.0000
  O   O6        1.0  0.6400607891508122  0.1335419655263669  0.2152727870824996  1.0000
  O   O7        1.0  0.6327470300876338  0.8039258742250752  0.19983852120586368  1.0000
  O   O8        1.0  0.28474238180418593  0.8022117907062745  0.7518299439420103  1.0000
  O   O9        1.0  0.7848489188125412  0.6233984525479161  0.7550430184610067  1.0000
  O   O10       1.0  0.13324070711105362  0.6237430718621992  0.19903883209570888  1.0000
  O   O11       1.0  0.14635101269205353  0.30447431896527555  0.20721468146159586  1.0000
  O   O12       1.0  0.7882023602744402  0.30317423075358857  0.750723222102086  1.0000
  O   O13       1.0  0.28917758761974394  0.2990507916571818  0.77391721617606  1.0000
  O   O14       1.0  0.6161161075146567  0.310781638404483  0.15759854421904423  1.0000
  O   O15       1.0  0.6264512392304754  0.621565203544018  0.17049189505408782  1.0000
  O   O16       1.0  0.2897606720978978  0.6207346908064183  0.7874553193443893  1.0000
  O   O17       1.0  0.7888143059280316  0.806931992144553  0.7858741969256424  1.0000
  O   O18       1.0  0.12271356708964923  0.8072904436385809  0.16759128662527095  1.0000
  O   O19       1.0  0.12768198988493534  0.12248792827376442  0.1724619241382889  1.0000
  O   O20       1.0  0.8016327468167856  0.12229167137141475  0.7822084651333798  1.0000
  O   O21       1.0  0.2682362041851287  0.21026200475101067  0.026701100063921655  1.0000
  O   O22       1.0  0.7646292192547722  0.21855442816022078  0.02159870295764725  1.0000
  O   O23       1.0  0.7652817369143495  0.7082742109342016  0.025581789353933137  1.0000
  O   O24       1.0  0.2646896865556029  0.7209657892920713  0.026133075918758072  1.0000
  O   O25       1.0  0.39049817960572875  0.34979940357303646  0.24454675498594247  1.0000
  O   O26       1.0  0.5242285995367075  0.3407704102367417  0.7153542585573798  1.0000
  O   O27       1.0  0.5220601209869685  0.5825954543878689  0.71985087274192  1.0000
  O   O28       1.0  0.3928783803578967  0.5833377607336219  0.23796112741338196  1.0000
  O   O29       1.0  0.8913892270584692  0.848734799120217  0.23718646118279801  1.0000
  O   O30       1.0  0.021096844523428537  0.8420557703695056  0.7194211627127511  1.0000
  O   O31       1.0  0.016673373413391732  0.0807370999758286  0.7142386228190101  1.0000
  O   O32       1.0  0.8956088112370291  0.0839237960745104  0.24340051966449452  1.0000
  O   O33       1.0  0.28817832839815144  0.3326371319889261  0.4778588490100294  1.0000
  O   O34       1.0  0.6325262274256908  0.3247979554558696  0.4652753176611244  1.0000
  O   O35       1.0  0.629869272830494  0.6032777989728682  0.47015712869850507  1.0000
  O   O36       1.0  0.2816987855333406  0.5965503880666776  0.4877947009587106  1.0000
  O   O37       1.0  0.7807828849549663  0.8323225551216394  0.488217267243834  1.0000
  O   O38       1.0  0.12753635387573148  0.8234824140323734  0.46774541615834314  1.0000
  O   O39       1.0  0.13361861879966652  0.10309378164600186  0.47284630976727093  1.0000
  O   O40       1.0  0.7916777963401163  0.09511843239697697  0.49924138835210363  1.0000
  O   O41       1.0  0.20892818311377964  0.4597844357104058  0.2797738164601119  1.0000
  O   O42       1.0  0.7109393497377672  0.4631251351754061  0.6730788094811138  1.0000
  O   O43       1.0  0.6994570325437084  0.9673694555936304  0.2768833625825441  1.0000
  O   O44       1.0  0.20879888998615873  0.9617065281709497  0.6727855209477316  1.0000
  O   O45       1.0  0.31908559475564335  0.46096374659666245  0.7037428075228161  1.0000
  O   O46       1.0  0.6014042755363571  0.4647963307320006  0.26098746341695733  1.0000
  O   O47       1.0  0.8246507255759541  0.9687671342758064  0.7019254194216689  1.0000
  O   O48       1.0  0.10271353691808636  0.9646395838762317  0.2627943267848376  1.0000
