data_image0
_chemical_formula_structural       Si2Ge22O48
_chemical_formula_sum              "Si2 Ge22 O48"
_cell_length_a       11.021767234744338
_cell_length_b       16.290933069699832
_cell_length_c       9.567685593852431
_cell_angle_alpha    89.76693573176051
_cell_angle_beta     105.72019330873357
_cell_angle_gamma    90.37860088917577

_space_group_name_H-M_alt    "P 1"
_space_group_IT_number       1

loop_
  _space_group_symop_operation_xyz
  'x, y, z'

loop_
  _atom_site_type_symbol
  _atom_site_label
  _atom_site_symmetry_multiplicity
  _atom_site_fract_x
  _atom_site_fract_y
  _atom_site_fract_z
  _atom_site_occupancy
  Si  Si1       1.0  0.32991769609808125  0.20846005594555259  0.8760932960965703  1.0000
  Si  Si2       1.0  0.13510306699201005  0.21508475902548022  0.07878872317016544  1.0000
  Ge  Ge1       1.0  0.6272432353727428  0.21016133261924072  0.08145271222853974  1.0000
  Ge  Ge2       1.0  0.6390229994670609  0.7136471971117677  0.08051293734826485  1.0000
  Ge  Ge3       1.0  0.3416759733586266  0.7188838866661675  0.8722294711776628  1.0000
  Ge  Ge4       1.0  0.8428942248308964  0.7062807560105092  0.8746442723849462  1.0000
  Ge  Ge5       1.0  0.1408098480594179  0.7117704684167699  0.0827361444388577  1.0000
  Ge  Ge6       1.0  0.8384256757469429  0.21766512871085258  0.8768739714973387  1.0000
  Ge  Ge7       1.0  0.26702533268126993  0.35860348626899263  0.30369231975838457  1.0000
  Ge  Ge8       1.0  0.6658738712691988  0.358331281517273  0.6547032192928529  1.0000
  Ge  Ge9       1.0  0.6659417166650204  0.565152429508294  0.6533396231551767  1.0000
  Ge  Ge10      1.0  0.2679269589779365  0.561947079177549  0.3036216006086672  1.0000
  Ge  Ge11      1.0  0.7724353162869138  0.8604313286368012  0.30294099822918436  1.0000
  Ge  Ge12      1.0  0.17047478091716964  0.8633420333924754  0.6526971449043006  1.0000
  Ge  Ge13      1.0  0.16774226030326286  0.0687078480914489  0.6516948735686188  1.0000
  Ge  Ge14      1.0  0.7688466936500193  0.06531342671835941  0.30245816727330127  1.0000
  Ge  Ge15      1.0  0.36414970772807953  0.35782171945424324  0.6691842515367167  1.0000
  Ge  Ge16      1.0  0.5713605707568071  0.35962842168183906  0.2956564474411868  1.0000
  Ge  Ge17      1.0  0.5706306854611659  0.5643028443572337  0.2934180598457751  1.0000
  Ge  Ge18      1.0  0.366105913719449  0.5626826185327791  0.6693930158232517  1.0000
  Ge  Ge19      1.0  0.8691267835991372  0.8608401754085376  0.6671468523441277  1.0000
  Ge  Ge20      1.0  0.07370701813533054  0.8636297404554302  0.2891002736167145  1.0000
  Ge  Ge21      1.0  0.0722754893429773  0.06897321126764913  0.28900340966847377  1.0000
  Ge  Ge22      1.0  0.8648244278167663  0.06530330045856904  0.6653613658245656  1.0000
  O   O1        1.0  0.48556800964755975  0.19611747589354886  0.9420038609924496  1.0000
  O   O2        1.0  0.5089609860578687  0.7303665910885444  0.9263853225481264  1.0000
  O   O3        1.0  0.00981934828882895  0.6946981966654121  0.9294102406418727  1.0000
  O   O4        1.0  0.004070427499290637  0.23029100391656837  0.9452605922046815  1.0000
  O   O5        1.0  0.2909260164398117  0.1289219913915278  0.7619559721127876  1.0000
  O   O6        1.0  0.6390624888809976  0.12245262405369113  0.1969836814451946  1.0000
  O   O7        1.0  0.6463677447127949  0.7990639969527779  0.1991199177003757  1.0000
  O   O8        1.0  0.30059074476965697  0.8058499951523844  0.7554658651050666  1.0000
  O   O9        1.0  0.7992858095708155  0.6198886783259858  0.7575899965939683  1.0000
  O   O10       1.0  0.14555095470597754  0.626071334462081  0.20128601752569383  1.0000
  O   O11       1.0  0.1483094936874529  0.2948046006223266  0.19370436430940266  1.0000
  O   O12       1.0  0.7992019474657935  0.30507421749986796  0.7609805791147684  1.0000
  O   O13       1.0  0.2978178735948414  0.29853122762410506  0.7863220459054827  1.0000
  O   O14       1.0  0.6369251967837393  0.306121537944631  0.17277805785580364  1.0000
  O   O15       1.0  0.6366930951461354  0.6175134503201309  0.1693925518819491  1.0000
  O   O16       1.0  0.2970496503415958  0.6229559686126316  0.782070303375665  1.0000
  O   O17       1.0  0.8005462462966242  0.8021751678309171  0.7835443350556848  1.0000
  O   O18       1.0  0.14181953049184942  0.8083462363330163  0.17029993224231077  1.0000
  O   O19       1.0  0.13635673629658132  0.12597038406989766  0.16755666642234357  1.0000
  O   O20       1.0  0.7979029394161693  0.12230710542724439  0.7837052720767312  1.0000
  O   O21       1.0  0.2569813881154528  0.20888087701960442  0.00717492453219744  1.0000
  O   O22       1.0  0.7662751687261073  0.2179991513703204  0.02155510007968261  1.0000
  O   O23       1.0  0.7816163914564548  0.7037058349434414  0.028237506957615573  1.0000
  O   O24       1.0  0.2821512653757431  0.721260392617519  0.02719751428791051  1.0000
  O   O25       1.0  0.40447478006147264  0.34550989686151956  0.24134647086386515  1.0000
  O   O26       1.0  0.5305880627185748  0.3405599757637732  0.7199821850223013  1.0000
  O   O27       1.0  0.5325968704180688  0.580561671987258  0.7224424781895435  1.0000
  O   O28       1.0  0.40349457401985206  0.576146363348964  0.2375065424231613  1.0000
  O   O29       1.0  0.9074261977474604  0.8460306656916777  0.23645679636535036  1.0000
  O   O30       1.0  0.035999785506283834  0.8459302981920246  0.7196127010417555  1.0000
  O   O31       1.0  0.030992789345856225  0.08355947933172556  0.7146199922923921  1.0000
  O   O32       1.0  0.9055558102486274  0.08404211603461621  0.24027681497568387  1.0000
  O   O33       1.0  0.2876904845664281  0.3266536528291374  0.487564355140685  1.0000
  O   O34       1.0  0.6420692370360924  0.3210902812976865  0.4738335028983061  1.0000
  O   O35       1.0  0.6393952485969444  0.6028420262372144  0.47196239855942457  1.0000
  O   O36       1.0  0.2921730393514538  0.5939821787699595  0.4873973501934951  1.0000
  O   O37       1.0  0.7968096247736196  0.8269985272244867  0.48636924730110515  1.0000
  O   O38       1.0  0.14678241561103844  0.8296676948420223  0.46977893666372067  1.0000
  O   O39       1.0  0.14793153432508058  0.10284465231680286  0.46916914746710103  1.0000
  O   O40       1.0  0.7883639898037681  0.09827407772377493  0.4850998128727746  1.0000
  O   O41       1.0  0.20515453770362843  0.460214196819663  0.27308738547499356  1.0000
  O   O42       1.0  0.7208836073372082  0.4619433872346463  0.6737864446315968  1.0000
  O   O43       1.0  0.7118459616240205  0.962221071872116  0.2745112505110951  1.0000
  O   O44       1.0  0.22711688854098178  0.96655371271643  0.679461648077902  1.0000
  O   O45       1.0  0.32540507577316036  0.4602343661845543  0.7065438113403419  1.0000
  O   O46       1.0  0.6194719455970895  0.4621539542997028  0.2716158572540469  1.0000
  O   O47       1.0  0.8246705474233399  0.9624601034576786  0.7004862954571753  1.0000
  O   O48       1.0  0.11429561674983295  0.9666958244739122  0.25605741393448056  1.0000
