data_image0
_chemical_formula_structural       Si2Ge22O48
_chemical_formula_sum              "Si2 Ge22 O48"
_cell_length_a       11.008588783911794
_cell_length_b       16.2897378613786
_cell_length_c       9.581673425559995
_cell_angle_alpha    90.02600416249405
_cell_angle_beta     105.79361718470685
_cell_angle_gamma    90.12120395737267

_space_group_name_H-M_alt    "P 1"
_space_group_IT_number       1

loop_
  _space_group_symop_operation_xyz
  'x, y, z'

loop_
  _atom_site_type_symbol
  _atom_site_label
  _atom_site_symmetry_multiplicity
  _atom_site_fract_x
  _atom_site_fract_y
  _atom_site_fract_z
  _atom_site_occupancy
  Si  Si1       1.0  0.3391080763601346  0.20778682651361344  0.8776625626619203  1.0000
  Si  Si2       1.0  0.6276273679462129  0.21030515985653184  0.07748155157819918  1.0000
  Ge  Ge1       1.0  0.6400605486167267  0.713761385516172  0.07932706677950116  1.0000
  Ge  Ge2       1.0  0.34203358044888105  0.71906868070677  0.8726733378120315  1.0000
  Ge  Ge3       1.0  0.8424074492510621  0.7072404750994692  0.8715023260297893  1.0000
  Ge  Ge4       1.0  0.14052057575551638  0.7121990033022125  0.0815425885566922  1.0000
  Ge  Ge5       1.0  0.13581470633089024  0.21487846141161604  0.08023330851347636  1.0000
  Ge  Ge6       1.0  0.8305327724513425  0.21721044256964042  0.8724599878972172  1.0000
  Ge  Ge7       1.0  0.26639819318422703  0.3607338377283081  0.30590654063392236  1.0000
  Ge  Ge8       1.0  0.6673506744247301  0.359383020997221  0.6477142806156322  1.0000
  Ge  Ge9       1.0  0.6678592188787198  0.5651711955931994  0.6492592822826904  1.0000
  Ge  Ge10      1.0  0.26944866988505095  0.5642432063501741  0.3035737886487024  1.0000
  Ge  Ge11      1.0  0.7703092420246287  0.862799146739665  0.29975789700598326  1.0000
  Ge  Ge12      1.0  0.1688376567663064  0.8629344594725584  0.6540731941242406  1.0000
  Ge  Ge13      1.0  0.16771132268152775  0.06953734538768698  0.65634492762867  1.0000
  Ge  Ge14      1.0  0.7693320390665993  0.06776950250619208  0.29748832510346357  1.0000
  Ge  Ge15      1.0  0.3663774640300651  0.3587648825744714  0.669020210566069  1.0000
  Ge  Ge16      1.0  0.5692516290901874  0.35787150443749854  0.2879884376879347  1.0000
  Ge  Ge17      1.0  0.5711233451924683  0.5626380555021495  0.2877608263990583  1.0000
  Ge  Ge18      1.0  0.3676339862754284  0.5633976758000652  0.6683521729484229  1.0000
  Ge  Ge19      1.0  0.8661936117412616  0.8616973238287899  0.664455134849303  1.0000
  Ge  Ge20      1.0  0.07403154568711233  0.8618659198799823  0.29259074837194854  1.0000
  Ge  Ge21      1.0  0.07500470550349925  0.06754423234079644  0.29470660249655917  1.0000
  Ge  Ge22      1.0  0.8630153876695043  0.06656545525323145  0.6623813870310856  1.0000
  O   O1        1.0  0.4944220360108158  0.19519798564901966  0.947170322638958  1.0000
  O   O2        1.0  0.5094932747250367  0.7302118579782607  0.9254834178081002  1.0000
  O   O3        1.0  0.009833000354423485  0.6963500357511586  0.9271962993954975  1.0000
  O   O4        1.0  0.9974917820068531  0.2280747903529606  0.9350190606900327  1.0000
  O   O5        1.0  0.2946181828147319  0.12755386825583861  0.7656157487129271  1.0000
  O   O6        1.0  0.6458461510602169  0.1289571702446986  0.19000657367587206  1.0000
  O   O7        1.0  0.6457743039468119  0.8001819095727496  0.19590219344840656  1.0000
  O   O8        1.0  0.3000957477232975  0.8067181821055273  0.7584135307218486  1.0000
  O   O9        1.0  0.8001495683877374  0.6211826152555986  0.7529116943608748  1.0000
  O   O10       1.0  0.14530564616698596  0.6267625546112258  0.19984024720137558  1.0000
  O   O11       1.0  0.14077170538856656  0.3005837907481969  0.19802859217784383  1.0000
  O   O12       1.0  0.7980388651429222  0.3041885457514073  0.7554197456162491  1.0000
  O   O13       1.0  0.3059764655454615  0.29764387731029596  0.7880539129426752  1.0000
  O   O14       1.0  0.628665479085701  0.2992000832997147  0.16572961970037908  1.0000
  O   O15       1.0  0.6383424998826384  0.6174215055705993  0.1670849918884276  1.0000
  O   O16       1.0  0.29835677061992544  0.6230707763918149  0.7820361185861693  1.0000
  O   O17       1.0  0.7979227213442996  0.8027429898747064  0.780080701861723  1.0000
  O   O18       1.0  0.14183939999141548  0.808233864169617  0.1713656706036467  1.0000
  O   O19       1.0  0.14556836475577817  0.11955162572474017  0.17395874156773877  1.0000
  O   O20       1.0  0.7904170492861506  0.12210548548788897  0.7778866739379765  1.0000
  O   O21       1.0  0.2706349612777194  0.21011688557784888  0.012668495042260013  1.0000
  O   O22       1.0  0.753048064270078  0.21971915753994473  0.011978747421940524  1.0000
  O   O23       1.0  0.7821797285207596  0.7039133714629583  0.0256142186171107  1.0000
  O   O24       1.0  0.28267809428890905  0.7209553340360361  0.027539398173057637  1.0000
  O   O25       1.0  0.40197261251430105  0.3447950169155314  0.24089613722559927  1.0000
  O   O26       1.0  0.5330431059496006  0.3423836470587649  0.714649018676194  1.0000
  O   O27       1.0  0.5345229249019313  0.5804621254967478  0.7187511600780887  1.0000
  O   O28       1.0  0.4040725792296975  0.5771674107232808  0.23544708210227833  1.0000
  O   O29       1.0  0.9073347625690474  0.8457386572293465  0.23788988914395515  1.0000
  O   O30       1.0  0.032882033113323786  0.8446612652018943  0.7175418193297692  1.0000
  O   O31       1.0  0.02920796963521747  0.08619871727294444  0.7157272567126356  1.0000
  O   O32       1.0  0.908555383662814  0.08496148655199728  0.23956204710680587  1.0000
  O   O33       1.0  0.28720132486580385  0.3274128206874489  0.4884721095542821  1.0000
  O   O34       1.0  0.6447025821964315  0.32244848501221557  0.46684062137364457  1.0000
  O   O35       1.0  0.6420631321098966  0.599949400341209  0.46673948236842816  1.0000
  O   O36       1.0  0.29435542900240314  0.5963876126332714  0.4873822081934689  1.0000
  O   O37       1.0  0.7910469801321681  0.8305412218065767  0.48281101056421805  1.0000
  O   O38       1.0  0.14673164825620763  0.8271746612393333  0.47257166033871223  1.0000
  O   O39       1.0  0.14796028355587656  0.10352150094217763  0.47417997430964753  1.0000
  O   O40       1.0  0.7877274504757343  0.09841855686221022  0.4812018368073709  1.0000
  O   O41       1.0  0.20602145588669402  0.4627374603312643  0.27673875336161907  1.0000
  O   O42       1.0  0.7247828138832312  0.4622745268382113  0.6705008159632053  1.0000
  O   O43       1.0  0.711312098375138  0.9649745262638367  0.2659452448834675  1.0000
  O   O44       1.0  0.22373903880942275  0.9663906168945333  0.6821565882389684  1.0000
  O   O45       1.0  0.3266746197773972  0.4612445396050796  0.7059737756404532  1.0000
  O   O46       1.0  0.6147650193646097  0.46006473226985956  0.2576267219642297  1.0000
  O   O47       1.0  0.8245390962599373  0.9638702634866234  0.699349675647369  1.0000
  O   O48       1.0  0.11775974652252306  0.9647854018886367  0.26566386092583316  1.0000
