data_image0
_chemical_formula_structural       Si2Ge22O48
_chemical_formula_sum              "Si2 Ge22 O48"
_cell_length_a       11.047746105928027
_cell_length_b       16.282860548882738
_cell_length_c       9.562080825851446
_cell_angle_alpha    89.96643253977336
_cell_angle_beta     105.65496629743885
_cell_angle_gamma    90.05000420057179

_space_group_name_H-M_alt    "P 1"
_space_group_IT_number       1

loop_
  _space_group_symop_operation_xyz
  'x, y, z'

loop_
  _atom_site_type_symbol
  _atom_site_label
  _atom_site_symmetry_multiplicity
  _atom_site_fract_x
  _atom_site_fract_y
  _atom_site_fract_z
  _atom_site_occupancy
  Si  Si1       1.0  0.3148116060493798  0.20849898274272904  0.869993509228069  1.0000
  Si  Si2       1.0  0.8789411999567727  0.06079332716353688  0.6577085098522525  1.0000
  Ge  Ge1       1.0  0.6082051205440584  0.20082731151100727  0.07236531871685994  1.0000
  Ge  Ge2       1.0  0.6556801823838224  0.7105453411743602  0.07405549532209053  1.0000
  Ge  Ge3       1.0  0.35873068485997417  0.7172882875457027  0.8673793391599609  1.0000
  Ge  Ge4       1.0  0.8586087706591676  0.704492400011359  0.86627035702218  1.0000
  Ge  Ge5       1.0  0.1556732259996586  0.7093436020224502  0.07510450750041411  1.0000
  Ge  Ge6       1.0  0.11458862321131537  0.21607724873249398  0.07587903511671311  1.0000
  Ge  Ge7       1.0  0.8148532758262985  0.20756342858395208  0.8645051017560057  1.0000
  Ge  Ge8       1.0  0.28150608273670663  0.3575971907138598  0.3009934204260535  1.0000
  Ge  Ge9       1.0  0.6807883388603679  0.35576951025121767  0.6432753084252684  1.0000
  Ge  Ge10      1.0  0.6850372881547783  0.5611243948207257  0.6454642272605916  1.0000
  Ge  Ge11      1.0  0.28711655313310985  0.5627069806860043  0.29921807484276325  1.0000
  Ge  Ge12      1.0  0.7870948751703407  0.8566739991115807  0.2990231370146935  1.0000
  Ge  Ge13      1.0  0.1853807861276258  0.8606227205564172  0.6483981289019146  1.0000
  Ge  Ge14      1.0  0.17496444782584994  0.06568204013508955  0.6474382607066802  1.0000
  Ge  Ge15      1.0  0.7824376951714237  0.06187564658995367  0.3008454976276613  1.0000
  Ge  Ge16      1.0  0.3808777793404503  0.356364116180392  0.6638022336486561  1.0000
  Ge  Ge17      1.0  0.5816529197757765  0.355221508077318  0.2809992149148504  1.0000
  Ge  Ge18      1.0  0.5865538110197897  0.5602565049169862  0.2824127021140094  1.0000
  Ge  Ge19      1.0  0.385299313772858  0.5612886533309729  0.663347184978394  1.0000
  Ge  Ge20      1.0  0.885100488793024  0.8593400286841157  0.6614878762738841  1.0000
  Ge  Ge21      1.0  0.08766419506448844  0.8590402822507948  0.28529153810589847  1.0000
  Ge  Ge22      1.0  0.0824170661011838  0.0644271025338766  0.28497626199050763  1.0000
  O   O1        1.0  0.4428408626183786  0.1874883061026035  0.004435487251305278  1.0000
  O   O2        1.0  0.5253157571417012  0.7293981060920166  0.9216281660876613  1.0000
  O   O3        1.0  0.025036062547052422  0.6915168061152726  0.9223226403328908  1.0000
  O   O4        1.0  0.9482486223326771  0.22670248477848312  0.01296536832000439  1.0000
  O   O5        1.0  0.2953456664315305  0.12923627632760706  0.7536998195653537  1.0000
  O   O6        1.0  0.6507112211106908  0.11914246546964899  0.2008787264730446  1.0000
  O   O7        1.0  0.6622814464529206  0.7949423415027278  0.19517132385379293  1.0000
  O   O8        1.0  0.3169103108639056  0.8042614206361826  0.7508890222836199  1.0000
  O   O9        1.0  0.8155613683788331  0.6191997717087296  0.7459323019312928  1.0000
  O   O10       1.0  0.16225084130152664  0.6242099209490741  0.1949563458054246  1.0000
  O   O11       1.0  0.1503461899063197  0.30178473432696434  0.1960921959717761  1.0000
  O   O12       1.0  0.8056203385067776  0.2946504643975642  0.7483944504201605  1.0000
  O   O13       1.0  0.32079506714364286  0.2983982581120044  0.7867783176669629  1.0000
  O   O14       1.0  0.6451094004848968  0.29867205582879264  0.15820342401306778  1.0000
  O   O15       1.0  0.6540517983471791  0.6135905515418629  0.16027142845747563  1.0000
  O   O16       1.0  0.31697614396538315  0.6207393300691115  0.7783401667784794  1.0000
  O   O17       1.0  0.8179143647481446  0.8020518671060775  0.7804777599040505  1.0000
  O   O18       1.0  0.1555476807443166  0.8056727505218947  0.16369150357853504  1.0000
  O   O19       1.0  0.15280500097569027  0.11985441900290729  0.1669140001850718  1.0000
  O   O20       1.0  0.8166032398192273  0.11384938889250805  0.7695713422878797  1.0000
  O   O21       1.0  0.1885582376022363  0.21975183194457798  0.9330421778365877  1.0000
  O   O22       1.0  0.6770511233932415  0.19382105992853932  0.924943822720252  1.0000
  O   O23       1.0  0.7970512606142345  0.7006497570780441  0.01964987465923372  1.0000
  O   O24       1.0  0.29715464472693415  0.7194411179755725  0.020844516013479086  1.0000
  O   O25       1.0  0.41527718770524424  0.3396210007020825  0.23393157050761113  1.0000
  O   O26       1.0  0.5468307335259136  0.3404188393324621  0.7110992150688553  1.0000
  O   O27       1.0  0.5518253501463887  0.576799037710948  0.7146311210899285  1.0000
  O   O28       1.0  0.4207390481750372  0.577034696992888  0.23031946817337465  1.0000
  O   O29       1.0  0.9222612362187348  0.8405381517303342  0.23373775915770226  1.0000
  O   O30       1.0  0.051014397471836885  0.8416247375188616  0.7139402114274035  1.0000
  O   O31       1.0  0.03471513644268944  0.0773558718776774  0.7038170384224646  1.0000
  O   O32       1.0  0.9161768787901207  0.0810885338912745  0.23395961736052248  1.0000
  O   O33       1.0  0.30369270180215324  0.32329687894046155  0.48374660658444046  1.0000
  O   O34       1.0  0.6569422171689095  0.32083274901251074  0.46078682874315724  1.0000
  O   O35       1.0  0.6595492353247849  0.5953684895255891  0.462239916728949  1.0000
  O   O36       1.0  0.3134097921343244  0.5959263477262191  0.48285669742239673  1.0000
  O   O37       1.0  0.8106152301430042  0.8236464176151415  0.48243500170314907  1.0000
  O   O38       1.0  0.1631587401389487  0.8261405956762286  0.46583340311619287  1.0000
  O   O39       1.0  0.15606056680630656  0.09913584902576024  0.46489662984414737  1.0000
  O   O40       1.0  0.8098777361332463  0.09071412061950544  0.48670232261492  1.0000
  O   O41       1.0  0.22576364934831544  0.46080723241826405  0.2745296256630891  1.0000
  O   O42       1.0  0.7413808430678294  0.4578941986091245  0.6694116399131417  1.0000
  O   O43       1.0  0.7268877461894255  0.9586764186913286  0.2696965279073178  1.0000
  O   O44       1.0  0.23853474981332085  0.9644038490655584  0.6768141610481753  1.0000
  O   O45       1.0  0.34131877219016404  0.4593684342438818  0.6978784923272041  1.0000
  O   O46       1.0  0.626761135618769  0.4572720190038654  0.24999550547654031  1.0000
  O   O47       1.0  0.844870453208357  0.962942237717013  0.6871908709749787  1.0000
  O   O48       1.0  0.12603432946257154  0.9623449871222792  0.25240985378701847  1.0000
