data_image0
_chemical_formula_structural       Si2Ge22O48
_chemical_formula_sum              "Si2 Ge22 O48"
_cell_length_a       11.115414841486372
_cell_length_b       16.26793146518275
_cell_length_c       9.53943323142299
_cell_angle_alpha    89.86487709498702
_cell_angle_beta     105.51860970225962
_cell_angle_gamma    90.22146796378497

_space_group_name_H-M_alt    "P 1"
_space_group_IT_number       1

loop_
  _space_group_symop_operation_xyz
  'x, y, z'

loop_
  _atom_site_type_symbol
  _atom_site_label
  _atom_site_symmetry_multiplicity
  _atom_site_fract_x
  _atom_site_fract_y
  _atom_site_fract_z
  _atom_site_occupancy
  Si  Si1       1.0  0.36332463572878965  0.3625104951895468  0.6713425492071006  1.0000
  Si  Si2       1.0  0.060164994696405835  0.06591669330331058  0.28585580272254935  1.0000
  Ge  Ge1       1.0  0.3304871825124017  0.2091392580625239  0.8694046674274468  1.0000
  Ge  Ge2       1.0  0.6266031042591154  0.21010790267316928  0.08044099670795592  1.0000
  Ge  Ge3       1.0  0.6299272247892325  0.7149307072136523  0.07906085965312834  1.0000
  Ge  Ge4       1.0  0.3346321294693452  0.7196158141745734  0.872530531054524  1.0000
  Ge  Ge5       1.0  0.8358235533308068  0.7064301622296255  0.8743601186381031  1.0000
  Ge  Ge6       1.0  0.13151574288034085  0.7130973749574921  0.08146890442578307  1.0000
  Ge  Ge7       1.0  0.12780468158595168  0.2151201577218192  0.0839553451300288  1.0000
  Ge  Ge8       1.0  0.8325378868973967  0.22093228744504836  0.875243497889855  1.0000
  Ge  Ge9       1.0  0.2636419243005623  0.3617529733994063  0.3118996662486136  1.0000
  Ge  Ge10      1.0  0.6539463486400494  0.36027893697832747  0.6511397635036495  1.0000
  Ge  Ge11      1.0  0.6593863477113211  0.5672894242064938  0.6504651889718863  1.0000
  Ge  Ge12      1.0  0.26252368907511964  0.5651079603387669  0.3061147514319814  1.0000
  Ge  Ge13      1.0  0.7652836440922222  0.8604211070561254  0.3038559967586965  1.0000
  Ge  Ge14      1.0  0.16234334263500555  0.8617880692286067  0.6489633543126582  1.0000
  Ge  Ge15      1.0  0.15900598000255503  0.06771729275784028  0.6425076470262598  1.0000
  Ge  Ge16      1.0  0.7676447618644088  0.06506784957067539  0.30392192236678195  1.0000
  Ge  Ge17      1.0  0.5601598308292867  0.36005392827993077  0.291620608527213  1.0000
  Ge  Ge18      1.0  0.5612287750429674  0.5653496207143118  0.29016381019030774  1.0000
  Ge  Ge19      1.0  0.36440726601191814  0.5639216614674251  0.6713909353642008  1.0000
  Ge  Ge20      1.0  0.8653435584241976  0.8615148848563204  0.6688730922066516  1.0000
  Ge  Ge21      1.0  0.06222024793028762  0.8640629585586509  0.2865234394003162  1.0000
  Ge  Ge22      1.0  0.8644178818548748  0.06663660240571359  0.6679695529617405  1.0000
  O   O1        1.0  0.49414431511984  0.19007070047558752  0.9321415615011143  1.0000
  O   O2        1.0  0.49941250010624627  0.735651581603528  0.9287120191340176  1.0000
  O   O3        1.0  0.0004890723366723223  0.6912188949260113  0.9321040395989124  1.0000
  O   O4        1.0  0.9964750780454683  0.2392826983498423  0.9364683722859596  1.0000
  O   O5        1.0  0.28704281277081645  0.12877203041712854  0.7385161946236467  1.0000
  O   O6        1.0  0.6405153743812073  0.12445414479262228  0.20097151700733848  1.0000
  O   O7        1.0  0.6398337568328835  0.7989724875489853  0.20195716459342786  1.0000
  O   O8        1.0  0.2918152320965132  0.8038384869741255  0.7493580153576438  1.0000
  O   O9        1.0  0.7924837906682582  0.6216754109193345  0.7528250494715086  1.0000
  O   O10       1.0  0.14070109013789409  0.629508520606605  0.20586493665574446  1.0000
  O   O11       1.0  0.1422932900002  0.2957002137620017  0.21458569789578488  1.0000
  O   O12       1.0  0.7859033308982374  0.306209580788672  0.7558977436219678  1.0000
  O   O13       1.0  0.301410943554534  0.30721855000668086  0.7828688196765883  1.0000
  O   O14       1.0  0.6239620359058814  0.30703335425956335  0.16623421923652562  1.0000
  O   O15       1.0  0.6251373168178358  0.6174772650750755  0.16320135024196972  1.0000
  O   O16       1.0  0.29634691663530505  0.6211271630812322  0.7892295573098541  1.0000
  O   O17       1.0  0.7979033876065939  0.8039484721823411  0.7873801285200519  1.0000
  O   O18       1.0  0.1284462866114185  0.8115413724933871  0.16249219966228912  1.0000
  O   O19       1.0  0.11832571860520276  0.11876466617756581  0.1692276784333663  1.0000
  O   O20       1.0  0.7974587012424783  0.12368820411226143  0.7866833701794228  1.0000
  O   O21       1.0  0.2631286338944617  0.2047253178011698  0.018741901961973288  1.0000
  O   O22       1.0  0.7670606625564654  0.22058666794631  0.025749458559801066  1.0000
  O   O23       1.0  0.7706425571421801  0.7039320198473811  0.02518684852808307  1.0000
  O   O24       1.0  0.27116419507649464  0.7230299280371346  0.024709896524139734  1.0000
  O   O25       1.0  0.39466924516394347  0.34666552758100116  0.2398611165020928  1.0000
  O   O26       1.0  0.5186847994607608  0.3458110017393678  0.7154282772853335  1.0000
  O   O27       1.0  0.528469824394279  0.584837381522361  0.7216964959549075  1.0000
  O   O28       1.0  0.3958820301437006  0.5789876575528448  0.23751298878433832  1.0000
  O   O29       1.0  0.8981840670092249  0.8441195346758268  0.2357970453301367  1.0000
  O   O30       1.0  0.03011121522050567  0.8440319459782522  0.7181665270010394  1.0000
  O   O31       1.0  0.02895468830473001  0.085420741047324  0.7152410272977042  1.0000
  O   O32       1.0  0.9046655281299718  0.07947838582600275  0.24312233692542354  1.0000
  O   O33       1.0  0.29403646895643254  0.3346108978548252  0.4992968126427511  1.0000
  O   O34       1.0  0.6303818568147944  0.32198877618613064  0.47033180194367613  1.0000
  O   O35       1.0  0.6324916899896942  0.6041199713036942  0.46808914326540685  1.0000
  O   O36       1.0  0.28800218728821825  0.5966732050237961  0.49091876755770014  1.0000
  O   O37       1.0  0.7899691229529512  0.8282761562115902  0.48847480631624246  1.0000
  O   O38       1.0  0.13723041376208267  0.8280088155346274  0.46532712800946097  1.0000
  O   O39       1.0  0.12845110786970343  0.09746357943522761  0.456298218194939  1.0000
  O   O40       1.0  0.7881308704957999  0.09852463694616155  0.4870501781827162  1.0000
  O   O41       1.0  0.20088431481841995  0.4630569515756065  0.2777525921741174  1.0000
  O   O42       1.0  0.7113615395802306  0.46331262116563865  0.6697421254233134  1.0000
  O   O43       1.0  0.7070422787879551  0.9628749453121499  0.27545229916081976  1.0000
  O   O44       1.0  0.21748612615339566  0.9653468031525171  0.6736486466612299  1.0000
  O   O45       1.0  0.3299887682712017  0.45982981588517735  0.7043016459985413  1.0000
  O   O46       1.0  0.6073227201031665  0.4626325937055572  0.26646282558884465  1.0000
  O   O47       1.0  0.8256351044773426  0.9638839311536264  0.7054816494050583  1.0000
  O   O48       1.0  0.09789520346256864  0.9686420217062192  0.25965257367629785  1.0000
