data_image0
_chemical_formula_structural       Si2Ge22O48
_chemical_formula_sum              "Si2 Ge22 O48"
_cell_length_a       11.113937973193504
_cell_length_b       16.25534804754405
_cell_length_c       9.553770808067085
_cell_angle_alpha    90.0031148564634
_cell_angle_beta     105.54569748608165
_cell_angle_gamma    89.99849625910976

_space_group_name_H-M_alt    "P 1"
_space_group_IT_number       1

loop_
  _space_group_symop_operation_xyz
  'x, y, z'

loop_
  _atom_site_type_symbol
  _atom_site_label
  _atom_site_symmetry_multiplicity
  _atom_site_fract_x
  _atom_site_fract_y
  _atom_site_fract_z
  _atom_site_occupancy
  Si  Si1       1.0  0.36137702940711025  0.3653712962786057  0.669821754576582  1.0000
  Si  Si2       1.0  0.3613411805193574  0.5628143811488046  0.6697664004181306  1.0000
  Ge  Ge1       1.0  0.3305749495703047  0.2127260592943794  0.8691070933765004  1.0000
  Ge  Ge2       1.0  0.6257971746900892  0.21212091589173396  0.08145888655002081  1.0000
  Ge  Ge3       1.0  0.6258273730946383  0.716159412732668  0.08149931355197582  1.0000
  Ge  Ge4       1.0  0.3306202524754149  0.715473566045556  0.8690834499049738  1.0000
  Ge  Ge5       1.0  0.8311482711492282  0.7064298515517601  0.8766388349215857  1.0000
  Ge  Ge6       1.0  0.12749934094751175  0.7094505501973855  0.08131453930253192  1.0000
  Ge  Ge7       1.0  0.12746147073214498  0.21879473315341275  0.08132039831418493  1.0000
  Ge  Ge8       1.0  0.8311320298005574  0.22177871182367395  0.8766371849458946  1.0000
  Ge  Ge9       1.0  0.2616754791885744  0.3627382300988555  0.3117528310702705  1.0000
  Ge  Ge10      1.0  0.6513488404957984  0.3606837849722402  0.6515305758757484  1.0000
  Ge  Ge11      1.0  0.6513218207413228  0.5675020598117726  0.651570242222161  1.0000
  Ge  Ge12      1.0  0.26166480832639666  0.5654832625695217  0.3117285165917565  1.0000
  Ge  Ge13      1.0  0.7619207995021279  0.861507819635649  0.30511988962790726  1.0000
  Ge  Ge14      1.0  0.15962072718445167  0.8606064554230353  0.6487716244676066  1.0000
  Ge  Ge15      1.0  0.15962755187656208  0.06759111400994725  0.6487476407400535  1.0000
  Ge  Ge16      1.0  0.7619074988868945  0.06679659348181378  0.3051131163743492  1.0000
  Ge  Ge17      1.0  0.5584958430688141  0.36135635977768155  0.2929077784841991  1.0000
  Ge  Ge18      1.0  0.5584945897700129  0.5668856957115199  0.2929061055145186  1.0000
  Ge  Ge19      1.0  0.8624699364116506  0.8613919178144337  0.6694809278854049  1.0000
  Ge  Ge20      1.0  0.06021077826235252  0.861248693336851  0.28617578975091873  1.0000
  Ge  Ge21      1.0  0.06020283570741722  0.06696207460421451  0.28615387016775673  1.0000
  Ge  Ge22      1.0  0.8623997436407944  0.0668391590376928  0.6694143744926804  1.0000
  O   O1        1.0  0.4947650040854048  0.19484926415622567  0.9302077919516106  1.0000
  O   O2        1.0  0.4947877955908629  0.7333996781919252  0.9302321839195664  1.0000
  O   O3        1.0  0.9948440963444213  0.6866752047007528  0.9347006330970262  1.0000
  O   O4        1.0  0.9948239887182736  0.24154160740462421  0.9346658445299123  1.0000
  O   O5        1.0  0.28758724030699123  0.12701815657025337  0.7494123805442687  1.0000
  O   O6        1.0  0.6352189774804327  0.12688014348540697  0.20202551290823106  1.0000
  O   O7        1.0  0.6352140071269781  0.8014528294898726  0.20196276323686813  1.0000
  O   O8        1.0  0.28755220567629686  0.8011305487224987  0.7493197172179534  1.0000
  O   O9        1.0  0.7833185703690293  0.6215884050967235  0.7566152195260487  1.0000
  O   O10       1.0  0.13909589510172937  0.6305578010420646  0.21456302176629805  1.0000
  O   O11       1.0  0.1390245082404964  0.2977514783987884  0.2144699187719341  1.0000
  O   O12       1.0  0.7833256990856762  0.3065701509806531  0.7565205306681685  1.0000
  O   O13       1.0  0.2983126987280163  0.3098979234650051  0.7797419357047155  1.0000
  O   O14       1.0  0.623635529804182  0.3091648430575241  0.16760510002050086  1.0000
  O   O15       1.0  0.6236812909924322  0.6191471965638818  0.16773117695302872  1.0000
  O   O16       1.0  0.29837391151589165  0.6182882618231913  0.779772594777559  1.0000
  O   O17       1.0  0.7964469392620053  0.8040341795544091  0.7889463785429561  1.0000
  O   O18       1.0  0.12429121410653335  0.8086340972653098  0.16015025000827743  1.0000
  O   O19       1.0  0.12424302620748263  0.11960060547387946  0.16011881215532514  1.0000
  O   O20       1.0  0.7964545480728539  0.12416023780210671  0.7889946469381448  1.0000
  O   O21       1.0  0.26496119893256775  0.21351470133323971  0.019568989921466756  1.0000
  O   O22       1.0  0.7669994989925352  0.2213167586752206  0.02803782213807347  1.0000
  O   O23       1.0  0.7669861442493956  0.7068565616328865  0.028017724251139707  1.0000
  O   O24       1.0  0.264944052852605  0.714754708146621  0.019479968634510986  1.0000
  O   O25       1.0  0.39302690913122074  0.3478387557950762  0.24013671570657574  1.0000
  O   O26       1.0  0.5162593230235991  0.34633924323538134  0.7158218117837828  1.0000
  O   O27       1.0  0.5162041069940968  0.581918648531408  0.7157873343418905  1.0000
  O   O28       1.0  0.3930149461357862  0.5803683813260134  0.24010851866315563  1.0000
  O   O29       1.0  0.8953192251527551  0.8447838704531506  0.2379666624845664  1.0000
  O   O30       1.0  0.02716459478516878  0.8432461654853554  0.7174078424609474  1.0000
  O   O31       1.0  0.02708267952955649  0.0849938017728984  0.7172023686126727  1.0000
  O   O32       1.0  0.895316496166505  0.08343885034086691  0.23796835629234217  1.0000
  O   O33       1.0  0.29237050733447506  0.33584760910056244  0.4988541550463267  1.0000
  O   O34       1.0  0.6283197957191697  0.3224513363403608  0.4708785845938781  1.0000
  O   O35       1.0  0.6282744732522866  0.6057548973832464  0.47092648235931656  1.0000
  O   O36       1.0  0.2922937022948655  0.5923562737141627  0.4988352663091362  1.0000
  O   O37       1.0  0.7859792511039111  0.8288639142145516  0.48908737921401996  1.0000
  O   O38       1.0  0.1351990490570783  0.8263334869407165  0.46556836609487917  1.0000
  O   O39       1.0  0.13513929449436862  0.10190910717177976  0.4655578012368187  1.0000
  O   O40       1.0  0.785924242591354  0.09942920078240287  0.48907421316863825  1.0000
  O   O41       1.0  0.19847256028482185  0.46410983997122596  0.27864497733671323  1.0000
  O   O42       1.0  0.7068573266481275  0.4640940226570818  0.6699703516367786  1.0000
  O   O43       1.0  0.7033860678001309  0.9641510407010614  0.27737488965769763  1.0000
  O   O44       1.0  0.21516420587929938  0.9640978292905301  0.6746410253433629  1.0000
  O   O45       1.0  0.3319845950206134  0.4640953079815614  0.697845475330593  1.0000
  O   O46       1.0  0.605468968546827  0.4641187200784611  0.2694749784153533  1.0000
  O   O47       1.0  0.8230823849230849  0.9641159278294861  0.7058567377502012  1.0000
  O   O48       1.0  0.10204666134958701  0.96410357192412  0.2550731270286905  1.0000
