data_image0
_chemical_formula_structural       Si2Ge22O48
_chemical_formula_sum              "Si2 Ge22 O48"
_cell_length_a       11.019166872596077
_cell_length_b       16.29914717012576
_cell_length_c       9.570236241548763
_cell_angle_alpha    89.81596136341452
_cell_angle_beta     105.74176567385939
_cell_angle_gamma    90.5168397650155

_space_group_name_H-M_alt    "P 1"
_space_group_IT_number       1

loop_
  _space_group_symop_operation_xyz
  'x, y, z'

loop_
  _atom_site_type_symbol
  _atom_site_label
  _atom_site_symmetry_multiplicity
  _atom_site_fract_x
  _atom_site_fract_y
  _atom_site_fract_z
  _atom_site_occupancy
  Si  Si1       1.0  0.33685600482301004  0.20853930916296393  0.8741273076637422  1.0000
  Si  Si2       1.0  0.8368491411134037  0.7084967687348981  0.8742682542191617  1.0000
  Ge  Ge1       1.0  0.6305065164723924  0.21200781433466082  0.08023249840942358  1.0000
  Ge  Ge2       1.0  0.6373476350172517  0.7153584465119787  0.07820854592634535  1.0000
  Ge  Ge3       1.0  0.336250532682431  0.7194304835550918  0.872097736196938  1.0000
  Ge  Ge4       1.0  0.1304963265235818  0.7119767220430266  0.08013145945785125  1.0000
  Ge  Ge5       1.0  0.13730835290388502  0.21544030131688444  0.07804584663115045  1.0000
  Ge  Ge6       1.0  0.836192510572656  0.21951509451897158  0.8721167157089277  1.0000
  Ge  Ge7       1.0  0.2679339016658975  0.36156664513836617  0.30508212465139195  1.0000
  Ge  Ge8       1.0  0.6669007034353971  0.36342376480946287  0.6540470292126018  1.0000
  Ge  Ge9       1.0  0.6654175216964766  0.5694120521279841  0.6544966749599557  1.0000
  Ge  Ge10      1.0  0.2675655224313196  0.5657627552245992  0.3026721429101332  1.0000
  Ge  Ge11      1.0  0.7677275340201482  0.861488926781216  0.3052275323403909  1.0000
  Ge  Ge12      1.0  0.1671214155329533  0.8634380412598667  0.6540922933683629  1.0000
  Ge  Ge13      1.0  0.16553539675060538  0.06942166169744915  0.6545307237172975  1.0000
  Ge  Ge14      1.0  0.7674407169013385  0.06575722221633586  0.3026273197366011  1.0000
  Ge  Ge15      1.0  0.3654695893610419  0.36030883047012674  0.6698219967475871  1.0000
  Ge  Ge16      1.0  0.5703583283135634  0.3622068894671681  0.2929221085771976  1.0000
  Ge  Ge17      1.0  0.5709558619498074  0.567424550779167  0.29271921813108326  1.0000
  Ge  Ge18      1.0  0.36322017577841975  0.5648431126539666  0.6676379450416924  1.0000
  Ge  Ge19      1.0  0.8655488390208018  0.8603566491144923  0.670119578691945  1.0000
  Ge  Ge20      1.0  0.0702218013675408  0.8622309795378225  0.29283796620833974  1.0000
  Ge  Ge21      1.0  0.0707869240387945  0.06747710077134746  0.29251400930870103  1.0000
  Ge  Ge22      1.0  0.863263283210619  0.06485820719787307  0.6678600366661784  1.0000
  O   O1        1.0  0.4933016391233045  0.19668851768180143  0.9343511036017096  1.0000
  O   O2        1.0  0.5033898371651716  0.7308983515629193  0.9283179269355106  1.0000
  O   O3        1.0  0.9932900703711477  0.696583497218419  0.9342750986435683  1.0000
  O   O4        1.0  0.0033219500471237955  0.23102377736976096  0.9282093452642987  1.0000
  O   O5        1.0  0.2920409640255561  0.12870070562461025  0.761754514123776  1.0000
  O   O6        1.0  0.6407100101542773  0.1253741134276229  0.1976896081548139  1.0000
  O   O7        1.0  0.6432402180470651  0.8000262719357982  0.1980133344288963  1.0000
  O   O8        1.0  0.2981736897429044  0.8073588909292507  0.7576956943263583  1.0000
  O   O9        1.0  0.7918244325153677  0.6287509147234076  0.7617520158878095  1.0000
  O   O10       1.0  0.1408342321734227  0.6252532253950792  0.19741254600264124  1.0000
  O   O11       1.0  0.14340510171945772  0.3002277751563636  0.19763956618253414  1.0000
  O   O12       1.0  0.7980241087052139  0.30743759096666357  0.7577268596968026  1.0000
  O   O13       1.0  0.3014122700033368  0.2986767550091653  0.7859359047767708  1.0000
  O   O14       1.0  0.6360161179261351  0.30788526718653597  0.1711021370512698  1.0000
  O   O15       1.0  0.6395886460789754  0.6196884348365813  0.16977541637041418  1.0000
  O   O16       1.0  0.2929900273954825  0.6235823205385098  0.780976571284991  1.0000
  O   O17       1.0  0.8014688324381269  0.7986619500336865  0.7861284557700003  1.0000
  O   O18       1.0  0.1358399558827224  0.8077935929577272  0.1711161244639363  1.0000
  O   O19       1.0  0.1395798400044594  0.11984210490469989  0.16982483514976643  1.0000
  O   O20       1.0  0.7928942154150058  0.12369621826921808  0.780922380290209  1.0000
  O   O21       1.0  0.2739255278408412  0.20869068264618992  0.014066817341351302  1.0000
  O   O22       1.0  0.7705233242853718  0.22139952696374543  0.02214947695647975  1.0000
  O   O23       1.0  0.7740183073831287  0.7086924793726542  0.014299439353002609  1.0000
  O   O24       1.0  0.2705070051952304  0.7214209389137046  0.02206503672840364  1.0000
  O   O25       1.0  0.40372122828354656  0.34616682160673956  0.2406568077180559  1.0000
  O   O26       1.0  0.5323336405374705  0.34534871697465874  0.7205049654806227  1.0000
  O   O27       1.0  0.5295806841290452  0.5837566838818518  0.7194300544458044  1.0000
  O   O28       1.0  0.40429089456856193  0.582521655788596  0.23955008844006193  1.0000
  O   O29       1.0  0.9037443062357029  0.8455408774722113  0.24149054555887556  1.0000
  O   O30       1.0  0.0323166032309963  0.8450591085451497  0.7199524043556497  1.0000
  O   O31       1.0  0.02952107790149357  0.08413411776327784  0.7189773488281095  1.0000
  O   O32       1.0  0.9042516864648451  0.08311430203846724  0.23993416357738942  1.0000
  O   O33       1.0  0.2894768506269458  0.3287452330759259  0.4883506768547529  1.0000
  O   O34       1.0  0.6432361505618776  0.32706293042596085  0.4726703951775486  1.0000
  O   O35       1.0  0.6429890859390096  0.6041700598681367  0.4720020412309356  1.0000
  O   O36       1.0  0.2889522365853768  0.5971580035804223  0.4864113562885098  1.0000
  O   O37       1.0  0.7887574290437173  0.8291681033275429  0.48866364287919484  1.0000
  O   O38       1.0  0.14429692213162315  0.8275618598074491  0.4725611171960359  1.0000
  O   O39       1.0  0.14346365149433515  0.10382251351548923  0.47189528750997334  1.0000
  O   O40       1.0  0.7883301297227007  0.0966474545867756  0.4865238712217497  1.0000
  O   O41       1.0  0.20777586721335767  0.4632446238026039  0.2741354519726202  1.0000
  O   O42       1.0  0.7228953517208261  0.46686511126404107  0.6787787932769686  1.0000
  O   O43       1.0  0.7079319960066408  0.963208007722602  0.273101630908367  1.0000
  O   O44       1.0  0.2229586033755331  0.9668848979889125  0.6797439753092931  1.0000
  O   O45       1.0  0.32360051692984476  0.46221266557744606  0.705314976220818  1.0000
  O   O46       1.0  0.6149175113770267  0.46502137177580466  0.26499334171703515  1.0000
  O   O47       1.0  0.8244406260315498  0.962254150741118  0.7066708007615027  1.0000
  O   O48       1.0  0.11383660098643483  0.965052595407163  0.2634818544366959  1.0000
