data_image0
_chemical_formula_structural       Si2Ge22O48
_chemical_formula_sum              "Si2 Ge22 O48"
_cell_length_a       11.01892452982116
_cell_length_b       16.291105742121516
_cell_length_c       9.572670010908622
_cell_angle_alpha    90.0313113665752
_cell_angle_beta     105.77250784441134
_cell_angle_gamma    90.10663284354217

_space_group_name_H-M_alt    "P 1"
_space_group_IT_number       1

loop_
  _space_group_symop_operation_xyz
  'x, y, z'

loop_
  _atom_site_type_symbol
  _atom_site_label
  _atom_site_symmetry_multiplicity
  _atom_site_fract_x
  _atom_site_fract_y
  _atom_site_fract_z
  _atom_site_occupancy
  Si  Si1       1.0  0.33453704134622086  0.20755763214327858  0.8741301141916883  1.0000
  Si  Si2       1.0  0.1334928901327384  0.7111609759239023  0.08701933929538659  1.0000
  Ge  Ge1       1.0  0.6280757997170481  0.21151494776350724  0.07990863936180743  1.0000
  Ge  Ge2       1.0  0.6323362201010118  0.7147961124559423  0.08670497694935651  1.0000
  Ge  Ge3       1.0  0.33098952238246593  0.7177798281219713  0.8792422537293706  1.0000
  Ge  Ge4       1.0  0.8400145831609745  0.7077699324666002  0.882365091080716  1.0000
  Ge  Ge5       1.0  0.1365829889572758  0.21418058958321323  0.08041368022050832  1.0000
  Ge  Ge6       1.0  0.835044731163743  0.21902368245828338  0.8742093570137281  1.0000
  Ge  Ge7       1.0  0.26396362760647496  0.3626350983751133  0.3059499049532916  1.0000
  Ge  Ge8       1.0  0.6628009429837138  0.36040367621200414  0.6544119746100291  1.0000
  Ge  Ge9       1.0  0.662987681894241  0.5673042263251982  0.6587451962629987  1.0000
  Ge  Ge10      1.0  0.26466079545589444  0.566098803196904  0.30618499785719017  1.0000
  Ge  Ge11      1.0  0.766712411516748  0.8610365551351148  0.30737116574052203  1.0000
  Ge  Ge12      1.0  0.1659926616135948  0.8622500784406064  0.6556123426228073  1.0000
  Ge  Ge13      1.0  0.1651295207772523  0.06777292400344914  0.6545704749470567  1.0000
  Ge  Ge14      1.0  0.7677809167271902  0.0659504793983797  0.3026362223090029  1.0000
  Ge  Ge15      1.0  0.3624194829738356  0.35936236021138906  0.6712589466948953  1.0000
  Ge  Ge16      1.0  0.5670419672430497  0.36098464908912664  0.2952123292000097  1.0000
  Ge  Ge17      1.0  0.568728618480177  0.565806632873796  0.29911862564287434  1.0000
  Ge  Ge18      1.0  0.3613289634105854  0.564327042161366  0.6719475035146985  1.0000
  Ge  Ge19      1.0  0.863856550072725  0.8614221150980779  0.6704475036401736  1.0000
  Ge  Ge20      1.0  0.06919651370483587  0.8590485928223943  0.2932740460184919  1.0000
  Ge  Ge21      1.0  0.070699948862683  0.06450461211049062  0.29132380676527736  1.0000
  Ge  Ge22      1.0  0.8624904947273238  0.06597385315678703  0.6666000055302659  1.0000
  O   O1        1.0  0.4912537280654918  0.19588805233068582  0.9337535416943973  1.0000
  O   O2        1.0  0.49809940300615335  0.7293615734420781  0.9368139618514191  1.0000
  O   O3        1.0  0.00614278979749404  0.6955264711703467  0.9480332350569943  1.0000
  O   O4        1.0  0.002098808083992905  0.22988160966334723  0.9309722929879586  1.0000
  O   O5        1.0  0.2906023164694088  0.12786421201826587  0.7609868373179084  1.0000
  O   O6        1.0  0.6398051282349507  0.12457481636632811  0.19655045590985348  1.0000
  O   O7        1.0  0.6387149575245187  0.8013794693088608  0.20311011421256736  1.0000
  O   O8        1.0  0.29443421132792713  0.8051537664189033  0.7632989276282005  1.0000
  O   O9        1.0  0.7963668020636874  0.6208939933428491  0.7658687799007814  1.0000
  O   O10       1.0  0.14518406070383  0.6307772443852033  0.2006819423844264  1.0000
  O   O11       1.0  0.14177633559605246  0.29949390849179275  0.19931422356314865  1.0000
  O   O12       1.0  0.7963398446882559  0.3064982617938016  0.7590049005698988  1.0000
  O   O13       1.0  0.29771367616021505  0.29768202373949937  0.7860317181637049  1.0000
  O   O14       1.0  0.6311605759795599  0.30742245414021563  0.1706429609979714  1.0000
  O   O15       1.0  0.6365801917292095  0.6188382469564689  0.17714443024403492  1.0000
  O   O16       1.0  0.2902255479922998  0.6221346226395026  0.7863984898190004  1.0000
  O   O17       1.0  0.7988151016888719  0.8032042943236588  0.7896688026415231  1.0000
  O   O18       1.0  0.1320522605294542  0.800292590031089  0.1738474176941225  1.0000
  O   O19       1.0  0.13999784628831788  0.11818170996142037  0.1710519291192761  1.0000
  O   O20       1.0  0.7919392528639335  0.12359429276542296  0.7815848279660816  1.0000
  O   O21       1.0  0.27233340364724484  0.20733202215583113  0.014634034192259514  1.0000
  O   O22       1.0  0.7687730447033712  0.22155231685578514  0.023648866349323363  1.0000
  O   O23       1.0  0.7740247450875435  0.7072312153872503  0.03212548043500389  1.0000
  O   O24       1.0  0.26185913681980877  0.7193712253117207  0.026275632305979058  1.0000
  O   O25       1.0  0.3998669048610096  0.3483044650783296  0.24097961761051306  1.0000
  O   O26       1.0  0.5290463987534779  0.3425305115591339  0.7219821604693143  1.0000
  O   O27       1.0  0.5277217497756902  0.583002915108767  0.7245901702223906  1.0000
  O   O28       1.0  0.4018465220846355  0.5798274073118671  0.24319029289336666  1.0000
  O   O29       1.0  0.902501164166221  0.8434067404554193  0.24359781256033816  1.0000
  O   O30       1.0  0.030490624744475583  0.8454302341708022  0.7203557676180932  1.0000
  O   O31       1.0  0.028995621102635025  0.08355516372926983  0.7186124966191495  1.0000
  O   O32       1.0  0.9042771192394066  0.08165354872483274  0.23904236807314722  1.0000
  O   O33       1.0  0.2861411722574101  0.3294352477312822  0.4889392009472199  1.0000
  O   O34       1.0  0.6377168342413813  0.32274164234963865  0.47343495327339824  1.0000
  O   O35       1.0  0.6384383843985862  0.6044352476552398  0.4775741307464738  1.0000
  O   O36       1.0  0.28674181609279414  0.5966142664504196  0.49069422145833297  1.0000
  O   O37       1.0  0.7879087235365236  0.8280098136018036  0.4902693962959077  1.0000
  O   O38       1.0  0.14484191495165696  0.8265469079569312  0.4740633667491225  1.0000
  O   O39       1.0  0.14388304081230766  0.10008619337192667  0.47114338160847297  1.0000
  O   O40       1.0  0.7895006872809045  0.09917261795829022  0.48562575093963484  1.0000
  O   O41       1.0  0.20227025034378046  0.4643453867626543  0.27522824415339403  1.0000
  O   O42       1.0  0.7176615287779129  0.4638662268811587  0.6761500815386833  1.0000
  O   O43       1.0  0.7085541038819937  0.9634318655366841  0.27660119931078253  1.0000
  O   O44       1.0  0.22322671595659463  0.9651928538002501  0.6824058637612626  1.0000
  O   O45       1.0  0.32241766501611013  0.4616277495206688  0.7088146537412627  1.0000
  O   O46       1.0  0.6157721183636916  0.4634934568347316  0.27375149428398515  1.0000
  O   O47       1.0  0.8210803866632891  0.9638011397799925  0.7028484721744883  1.0000
  O   O48       1.0  0.11125892815041831  0.961489340603775  0.2596738092026423  1.0000
