data_image0
_chemical_formula_structural       Si2Ge22O48
_chemical_formula_sum              "Si2 Ge22 O48"
_cell_length_a       11.052608200814193
_cell_length_b       16.28588424199382
_cell_length_c       9.576698610378184
_cell_angle_alpha    89.8920173601656
_cell_angle_beta     105.828260795897
_cell_angle_gamma    90.2586909850881

_space_group_name_H-M_alt    "P 1"
_space_group_IT_number       1

loop_
  _space_group_symop_operation_xyz
  'x, y, z'

loop_
  _atom_site_type_symbol
  _atom_site_label
  _atom_site_symmetry_multiplicity
  _atom_site_fract_x
  _atom_site_fract_y
  _atom_site_fract_z
  _atom_site_occupancy
  Si  Si1       1.0  0.3337288497787736  0.2073610798595294  0.8742146187905816  1.0000
  Si  Si2       1.0  0.6571834274574112  0.5671086641213122  0.6546076829048767  1.0000
  Ge  Ge1       1.0  0.6272573082498507  0.21410780852397138  0.07888029855197845  1.0000
  Ge  Ge2       1.0  0.631136667534024  0.7167171212884759  0.0855388559494626  1.0000
  Ge  Ge3       1.0  0.3327607398091838  0.7184861247368417  0.8745600027683288  1.0000
  Ge  Ge4       1.0  0.8296957885221659  0.7063878624324594  0.8729724080503622  1.0000
  Ge  Ge5       1.0  0.127213589128842  0.71070217910762  0.08060603366518604  1.0000
  Ge  Ge6       1.0  0.13446815952120963  0.2154145227468019  0.07809794573924943  1.0000
  Ge  Ge7       1.0  0.8336151020311946  0.22273990840976804  0.8720064946068309  1.0000
  Ge  Ge8       1.0  0.26486800431973034  0.3614725537283239  0.30635923678753313  1.0000
  Ge  Ge9       1.0  0.6618330734244979  0.3642894374949763  0.6531829235508101  1.0000
  Ge  Ge10      1.0  0.26306561020357383  0.5654845169499914  0.3063858808759463  1.0000
  Ge  Ge11      1.0  0.7635528503045217  0.8642021971452524  0.30505889411126336  1.0000
  Ge  Ge12      1.0  0.16183732768987513  0.8621928545542786  0.6535406459387427  1.0000
  Ge  Ge13      1.0  0.16327322095302838  0.06871055578003907  0.6547129066051507  1.0000
  Ge  Ge14      1.0  0.7662788589011877  0.06859621351727246  0.30306245155176764  1.0000
  Ge  Ge15      1.0  0.363033252139941  0.35878815563279537  0.670807918450508  1.0000
  Ge  Ge16      1.0  0.5665298962131924  0.36299797877348833  0.29368083422271135  1.0000
  Ge  Ge17      1.0  0.564610211622551  0.5676820011835708  0.3000267477435052  1.0000
  Ge  Ge18      1.0  0.3636591020851831  0.5634055846855506  0.6705852627389612  1.0000
  Ge  Ge19      1.0  0.8615768349316721  0.8628445838951438  0.6695227483416597  1.0000
  Ge  Ge20      1.0  0.06466922379177034  0.8620656025100876  0.2917421275048837  1.0000
  Ge  Ge21      1.0  0.06839243437557252  0.0675793944255871  0.29246095989587695  1.0000
  Ge  Ge22      1.0  0.8620230074171799  0.06779018477390347  0.6677818705449435  1.0000
  O   O1        1.0  0.48995548058359606  0.19622187561358043  0.934754653907439  1.0000
  O   O2        1.0  0.4992669730257767  0.7309658888665435  0.9328505395793109  1.0000
  O   O3        1.0  0.9955347923679603  0.6903541009137514  0.9296791488966437  1.0000
  O   O4        1.0  0.00036053851718834427  0.23318687985690412  0.9294715945667872  1.0000
  O   O5        1.0  0.29025259103112405  0.12687554209369223  0.7628075823652221  1.0000
  O   O6        1.0  0.6395299788014586  0.12830655408407837  0.19838082163659437  1.0000
  O   O7        1.0  0.6368252544093309  0.804657229145977  0.19836924477883588  1.0000
  O   O8        1.0  0.2919062218767913  0.8048949578879387  0.756668543905167  1.0000
  O   O9        1.0  0.7771955723544803  0.6220232416565792  0.7538120121717661  1.0000
  O   O10       1.0  0.13721876635144337  0.6264828232208282  0.20307002530846824  1.0000
  O   O11       1.0  0.14139554298758067  0.29993570399002045  0.19863694454903025  1.0000
  O   O12       1.0  0.7957050358542254  0.3117309428146938  0.7598430609761537  1.0000
  O   O13       1.0  0.2975528263563497  0.29730073338724045  0.7851678648478629  1.0000
  O   O14       1.0  0.6303548885119562  0.3103291380631321  0.16842631909350086  1.0000
  O   O15       1.0  0.6360848251308596  0.6234271583958451  0.18437442812537289  1.0000
  O   O16       1.0  0.2948249641375503  0.6215147415730662  0.7860504656409519  1.0000
  O   O17       1.0  0.7929310456369408  0.803486488605568  0.7843345545511973  1.0000
  O   O18       1.0  0.12694578868188128  0.8075856255660501  0.16705528703501532  1.0000
  O   O19       1.0  0.1362973356884282  0.11961433934089284  0.16922365325424882  1.0000
  O   O20       1.0  0.7912334657086205  0.12707532558712084  0.7798730753090527  1.0000
  O   O21       1.0  0.2700999744077938  0.20767455259568626  0.013305245930992285  1.0000
  O   O22       1.0  0.7665236803043992  0.22397405915906485  0.02062766938059719  1.0000
  O   O23       1.0  0.7704312716376157  0.7057148369531772  0.0277644574990989  1.0000
  O   O24       1.0  0.2678777571555687  0.7204031655262054  0.024933456103540905  1.0000
  O   O25       1.0  0.4004009648732791  0.3469292657939002  0.24189065995360304  1.0000
  O   O26       1.0  0.5292216769948884  0.34235663398610144  0.7201808665346433  1.0000
  O   O27       1.0  0.5296599809552757  0.5797182232733059  0.7162778569848115  1.0000
  O   O28       1.0  0.39831656606693705  0.5822016668593798  0.24165281809743655  1.0000
  O   O29       1.0  0.8983150703328948  0.8470836612751496  0.24028047517814774  1.0000
  O   O30       1.0  0.027452084123703233  0.845130957471729  0.7197880725176968  1.0000
  O   O31       1.0  0.028135237866830132  0.08540486876738446  0.7192940269666459  1.0000
  O   O32       1.0  0.9025009062320171  0.084657201204218  0.23993353001527565  1.0000
  O   O33       1.0  0.2866128262651988  0.3279662266826612  0.48913073325655576  1.0000
  O   O34       1.0  0.6403864084587274  0.3269173649657005  0.47268206432765797  1.0000
  O   O35       1.0  0.6302856874756733  0.6003615057464541  0.4826057086448586  1.0000
  O   O36       1.0  0.2863654793014883  0.5964785290061321  0.49057710387891484  1.0000
  O   O37       1.0  0.7855925692922384  0.8313280627163612  0.488218717188302  1.0000
  O   O38       1.0  0.1380997034211256  0.8268591363499969  0.4714555329269943  1.0000
  O   O39       1.0  0.1417805955983696  0.10308077654908639  0.4721988389462666  1.0000
  O   O40       1.0  0.78827584857748  0.10037906990282185  0.48662379433721803  1.0000
  O   O41       1.0  0.20332904450322487  0.46309152095764056  0.27675439705077526  1.0000
  O   O42       1.0  0.7070488759162691  0.46961942903498577  0.6715867889083594  1.0000
  O   O43       1.0  0.7053390370541338  0.9664965568223184  0.2745934409825796  1.0000
  O   O44       1.0  0.21839741465033174  0.9654112257303344  0.6795357578843799  1.0000
  O   O45       1.0  0.3232423594424234  0.4610099043211795  0.7080607074267168  1.0000
  O   O46       1.0  0.6103345542694165  0.46616275090265163  0.2678061487583864  1.0000
  O   O47       1.0  0.8220818423731354  0.9653404546924763  0.7055089841130606  1.0000
  O   O48       1.0  0.10974869099222004  0.9645982877702938  0.26321337985248117  1.0000
