data_image0
_chemical_formula_structural       Si2Ge22O48
_chemical_formula_sum              "Si2 Ge22 O48"
_cell_length_a       11.106608959371163
_cell_length_b       16.26650068512685
_cell_length_c       9.554648874564174
_cell_angle_alpha    89.8583291164981
_cell_angle_beta     105.52271181472327
_cell_angle_gamma    90.24317165000294

_space_group_name_H-M_alt    "P 1"
_space_group_IT_number       1

loop_
  _space_group_symop_operation_xyz
  'x, y, z'

loop_
  _atom_site_type_symbol
  _atom_site_label
  _atom_site_symmetry_multiplicity
  _atom_site_fract_x
  _atom_site_fract_y
  _atom_site_fract_z
  _atom_site_occupancy
  Si  Si1       1.0  0.3630683657821238  0.3626297371284746  0.667993040913296  1.0000
  Si  Si2       1.0  0.8629647132092598  0.8626002737953933  0.668251520364831  1.0000
  Ge  Ge1       1.0  0.33263134634833463  0.21026594144157337  0.869934444090382  1.0000
  Ge  Ge2       1.0  0.6280208304033528  0.21113486527891218  0.08198412885769485  1.0000
  Ge  Ge3       1.0  0.6281894642719082  0.717626856654226  0.08035093614289741  1.0000
  Ge  Ge4       1.0  0.3319851056755383  0.7191252656238115  0.8748282373990369  1.0000
  Ge  Ge5       1.0  0.8326749164379204  0.7100816372869022  0.8701149453474352  1.0000
  Ge  Ge6       1.0  0.12810016181016462  0.710920839897483  0.0818910695473202  1.0000
  Ge  Ge7       1.0  0.12808936121183262  0.2178174343230876  0.08017849549144003  1.0000
  Ge  Ge8       1.0  0.8317812680359639  0.21926695392316584  0.8747537559002885  1.0000
  Ge  Ge9       1.0  0.2640160486054967  0.3617075495817737  0.3097132300523854  1.0000
  Ge  Ge10      1.0  0.654576360571228  0.36083297413535853  0.6506039060684046  1.0000
  Ge  Ge11      1.0  0.659256843703623  0.5674553353186005  0.6492424937455012  1.0000
  Ge  Ge12      1.0  0.2619367316599065  0.5654376963902413  0.30638412599312354  1.0000
  Ge  Ge13      1.0  0.7638180943621877  0.8616380802346998  0.3096280848201458  1.0000
  Ge  Ge14      1.0  0.15478778354185707  0.8607709270638257  0.6506374025954291  1.0000
  Ge  Ge15      1.0  0.1592617606139174  0.06750733809834833  0.6492986329557171  1.0000
  Ge  Ge16      1.0  0.7618310561135465  0.06550901571829239  0.30608219064738285  1.0000
  Ge  Ge17      1.0  0.560746025707908  0.3613674546739456  0.29029735263210105  1.0000
  Ge  Ge18      1.0  0.5609580834510235  0.5667646897655927  0.2884084638674907  1.0000
  Ge  Ge19      1.0  0.3633026482553413  0.5641308344704566  0.6699349912050451  1.0000
  Ge  Ge20      1.0  0.060835792029375696  0.8612716368444338  0.289998744417282  1.0000
  Ge  Ge21      1.0  0.06085213177923721  0.06677192631730497  0.28791789758952513  1.0000
  Ge  Ge22      1.0  0.8632161200065013  0.06410689852833294  0.6701596660166942  1.0000
  O   O1        1.0  0.49694198521614175  0.19331864462453183  0.9309975727787069  1.0000
  O   O2        1.0  0.4958597048969677  0.7393042691613694  0.9327187845399664  1.0000
  O   O3        1.0  0.9969967236971143  0.6931203923663019  0.9309165626043945  1.0000
  O   O4        1.0  0.9956256057557912  0.23949817170727006  0.9327239282162576  1.0000
  O   O5        1.0  0.28992018329889396  0.12405129794543997  0.7519135511416912  1.0000
  O   O6        1.0  0.6363432032364054  0.12665416540217567  0.20402704653812004  1.0000
  O   O7        1.0  0.6400755781822078  0.7974283208587093  0.21169387266001471  1.0000
  O   O8        1.0  0.2838793502022522  0.8035373404731159  0.7537853700330915  1.0000
  O   O9        1.0  0.7899591870166658  0.6238421279374883  0.7521558595633263  1.0000
  O   O10       1.0  0.13641535929516818  0.626409258373942  0.20387527476418257  1.0000
  O   O11       1.0  0.14020058249313241  0.2976255815330358  0.21155263258774248  1.0000
  O   O12       1.0  0.7838070565317882  0.3036609139118636  0.7536203608400607  1.0000
  O   O13       1.0  0.300042836034355  0.3061604447571549  0.7767891493842597  1.0000
  O   O14       1.0  0.626771794978846  0.30845128216673456  0.166886410004787  1.0000
  O   O15       1.0  0.6242946898010081  0.6189127196436562  0.16087360376288956  1.0000
  O   O16       1.0  0.2974058671334088  0.6206703815240263  0.790343299478847  1.0000
  O   O17       1.0  0.8000409423757231  0.8059610716970164  0.7769200731303785  1.0000
  O   O18       1.0  0.12682008211141055  0.808277815452385  0.1666441891470715  1.0000
  O   O19       1.0  0.12433474887210927  0.11910034921166783  0.16071245579509322  1.0000
  O   O20       1.0  0.7971709508537588  0.12083351226889191  0.790194206185453  1.0000
  O   O21       1.0  0.266339831877513  0.21210766894821675  0.01979359347761311  1.0000
  O   O22       1.0  0.7687298623710928  0.21967487563400473  0.027086267175876658  1.0000
  O   O23       1.0  0.7665100727420492  0.7119600243006926  0.02008561420479843  1.0000
  O   O24       1.0  0.2688392677486829  0.719554253783685  0.02708242817505412  1.0000
  O   O25       1.0  0.3953075198025974  0.34688684437729234  0.23801869732317615  1.0000
  O   O26       1.0  0.5187426238083036  0.34700694384663083  0.7140745044370856  1.0000
  O   O27       1.0  0.5275086316241132  0.584910313236298  0.7190064617051142  1.0000
  O   O28       1.0  0.39555392973884085  0.5810439914548365  0.2387362615260292  1.0000
  O   O29       1.0  0.8956666214153649  0.8455495919144516  0.23946081402284838  1.0000
  O   O30       1.0  0.018380690728647696  0.8461367480130415  0.712672886204115  1.0000
  O   O31       1.0  0.027145207411831792  0.08575239338734197  0.7180070394838166  1.0000
  O   O32       1.0  0.8957508617465003  0.0823021325943963  0.2395245289194765  1.0000
  O   O33       1.0  0.29536956467479725  0.33381645131683796  0.49646847124328164  1.0000
  O   O34       1.0  0.63139469124656  0.32414427703200466  0.4691803617930775  1.0000
  O   O35       1.0  0.6339719721343986  0.6037412018076758  0.46697519600443477  1.0000
  O   O36       1.0  0.28618383987065504  0.5977317774699157  0.49040334787620016  1.0000
  O   O37       1.0  0.7937969647505838  0.8346925838896168  0.4966531563046818  1.0000
  O   O38       1.0  0.1333520047400039  0.824930022807385  0.46897628886557946  1.0000
  O   O39       1.0  0.1352208883508088  0.10287605042599246  0.46667136022931976  1.0000
  O   O40       1.0  0.7850169145072969  0.09683452094353491  0.4904462308082606  1.0000
  O   O41       1.0  0.2016586413326494  0.46312564015063096  0.2782685127605398  1.0000
  O   O42       1.0  0.7128677335051037  0.46378228389238335  0.6718009214768029  1.0000
  O   O43       1.0  0.7021408408981439  0.9631301488814004  0.27586346859016353  1.0000
  O   O44       1.0  0.2125306435323615  0.9638102602242713  0.6738521391796654  1.0000
  O   O45       1.0  0.3282594688838883  0.45977166415308673  0.700448504876593  1.0000
  O   O46       1.0  0.6059622301868997  0.464079399221296  0.262645109471115  1.0000
  O   O47       1.0  0.8296401838729266  0.9597472890858956  0.7025816579647467  1.0000
  O   O48       1.0  0.10418415293334725  0.9640407587613813  0.2597940224519188  1.0000
