data_image0
_chemical_formula_structural       Si2Ge22O48
_chemical_formula_sum              "Si2 Ge22 O48"
_cell_length_a       11.052387038953244
_cell_length_b       16.282487471636756
_cell_length_c       9.578711379154953
_cell_angle_alpha    89.92487557656575
_cell_angle_beta     105.82601195704243
_cell_angle_gamma    90.28002526589499

_space_group_name_H-M_alt    "P 1"
_space_group_IT_number       1

loop_
  _space_group_symop_operation_xyz
  'x, y, z'

loop_
  _atom_site_type_symbol
  _atom_site_label
  _atom_site_symmetry_multiplicity
  _atom_site_fract_x
  _atom_site_fract_y
  _atom_site_fract_z
  _atom_site_occupancy
  Si  Si1       1.0  0.33492947600082756  0.20846966161662114  0.8742675676329712  1.0000
  Si  Si2       1.0  0.6630030696733156  0.3595343078695659  0.653738721824475  1.0000
  Ge  Ge1       1.0  0.6289292987012816  0.20898649682666925  0.08294414465927367  1.0000
  Ge  Ge2       1.0  0.6404920180167926  0.7118629203844459  0.08233722303628735  1.0000
  Ge  Ge3       1.0  0.3430149503962735  0.7197143463237688  0.8756468908361563  1.0000
  Ge  Ge4       1.0  0.84347658241063  0.7038450643705249  0.8753841010649032  1.0000
  Ge  Ge5       1.0  0.14113383474781335  0.7115750294940075  0.08398644425026533  1.0000
  Ge  Ge6       1.0  0.13208819251601012  0.21617653167195394  0.07592366075215505  1.0000
  Ge  Ge7       1.0  0.8311457612726495  0.21999501211293285  0.8706426725941682  1.0000
  Ge  Ge8       1.0  0.26792002892221856  0.3599877078120332  0.3069731223865167  1.0000
  Ge  Ge9       1.0  0.6674477658426303  0.5624205226154386  0.6548771891576833  1.0000
  Ge  Ge10      1.0  0.27127900075821665  0.5641301219519379  0.30718578145239905  1.0000
  Ge  Ge11      1.0  0.7731054899684631  0.8585474117059809  0.3063290567185705  1.0000
  Ge  Ge12      1.0  0.17036255253092458  0.8628982975626617  0.6561107622591191  1.0000
  Ge  Ge13      1.0  0.1659637695558301  0.06945369722485382  0.6531248206475915  1.0000
  Ge  Ge14      1.0  0.7685206688742837  0.06305770382577394  0.30305373010598896  1.0000
  Ge  Ge15      1.0  0.3692057932826088  0.3594359445230805  0.6705889531206145  1.0000
  Ge  Ge16      1.0  0.5697263894648962  0.35849559733468134  0.29965083194146663  1.0000
  Ge  Ge17      1.0  0.5725759568530936  0.5632179839634808  0.29464384986689496  1.0000
  Ge  Ge18      1.0  0.36886181011099267  0.5640851404528978  0.6718680568600349  1.0000
  Ge  Ge19      1.0  0.8700127740120589  0.8600274763310892  0.6708332336931407  1.0000
  Ge  Ge20      1.0  0.07412121782667305  0.8613343895345308  0.2941130698042107  1.0000
  Ge  Ge21      1.0  0.0706908177379309  0.06694567382903792  0.29134146204911016  1.0000
  Ge  Ge22      1.0  0.8648850447132121  0.06501712438317245  0.667297661439211  1.0000
  O   O1        1.0  0.49014561936629586  0.19500777685364817  0.9393806177405256  1.0000
  O   O2        1.0  0.5099195911552651  0.7308281055566483  0.9299832507907919  1.0000
  O   O3        1.0  0.01026356948262286  0.6932696443625438  0.9312636899150737  1.0000
  O   O4        1.0  0.9969716774808222  0.23598082976586277  0.9294397090516335  1.0000
  O   O5        1.0  0.2914555889283524  0.12954310382091222  0.7593279979656274  1.0000
  O   O6        1.0  0.6400142702059914  0.11987337952473799  0.19463028257755022  1.0000
  O   O7        1.0  0.648104339849787  0.7962934505274751  0.20334313696809247  1.0000
  O   O8        1.0  0.30175699436601294  0.8073780632141616  0.7608529566170849  1.0000
  O   O9        1.0  0.8013291551573413  0.6157587160956648  0.7614414490655602  1.0000
  O   O10       1.0  0.1474085874696171  0.6263428488467371  0.20335229271973546  1.0000
  O   O11       1.0  0.14251355857058756  0.2996898629988253  0.19953117352198224  1.0000
  O   O12       1.0  0.7831602902866478  0.30523481371472744  0.7525756043526817  1.0000
  O   O13       1.0  0.3049568762572761  0.2994083971914013  0.7878712922469843  1.0000
  O   O14       1.0  0.6387372452177906  0.30199379892234257  0.1833742071410747  1.0000
  O   O15       1.0  0.6383433556983626  0.6153822245279723  0.169872905721402  1.0000
  O   O16       1.0  0.29946496888435403  0.6236841730344348  0.7849715393661025  1.0000
  O   O17       1.0  0.8013530182848752  0.7998507646187629  0.7846238194560385  1.0000
  O   O18       1.0  0.14117432765737511  0.8078660048764666  0.17248852236838866  1.0000
  O   O19       1.0  0.1341499339776031  0.1196938475126745  0.16501256359338923  1.0000
  O   O20       1.0  0.7941910328184223  0.12316101117113991  0.7808857169012459  1.0000
  O   O21       1.0  0.2667697132508024  0.20888403799253238  0.009354910429772075  1.0000
  O   O22       1.0  0.7658449733597891  0.22070602323389252  0.020616701918292263  1.0000
  O   O23       1.0  0.7818439688023784  0.7021936942503637  0.028405124416696643  1.0000
  O   O24       1.0  0.28225993100910207  0.721616815948125  0.029305853760951375  1.0000
  O   O25       1.0  0.40336765629348903  0.3434476768563782  0.2430598209872062  1.0000
  O   O26       1.0  0.5352768473135068  0.3447737336526617  0.7145084010115835  1.0000
  O   O27       1.0  0.5349358845283351  0.5820713799721532  0.722791450025782  1.0000
  O   O28       1.0  0.4064855772173031  0.57887615417172  0.2417137241193775  1.0000
  O   O29       1.0  0.9083052125644003  0.8435668872976311  0.24137162948851698  1.0000
  O   O30       1.0  0.03646192284966783  0.8447219256700067  0.7227239751419698  1.0000
  O   O31       1.0  0.030375379882857156  0.08507431181466756  0.7173511148580678  1.0000
  O   O32       1.0  0.9042925507815951  0.08146307066273946  0.24019688857340116  1.0000
  O   O33       1.0  0.28971304002588233  0.3275780688293095  0.49033176557033  1.0000
  O   O34       1.0  0.6371487156239852  0.3263196643723567  0.48201604900132783  1.0000
  O   O35       1.0  0.6452299880740615  0.599503196102835  0.47394824615169046  1.0000
  O   O36       1.0  0.294601552836674  0.596362089900093  0.4906826562778454  1.0000
  O   O37       1.0  0.7963906805917789  0.8266768493232153  0.49006900579505575  1.0000
  O   O38       1.0  0.14725588581407068  0.8270942413741313  0.4744249057006026  1.0000
  O   O39       1.0  0.14409356839636892  0.10346696993201744  0.4704096924533559  1.0000
  O   O40       1.0  0.7888859590238144  0.0960128429861092  0.48580295604172  1.0000
  O   O41       1.0  0.20911646861821506  0.46230866126355946  0.27759690332456327  1.0000
  O   O42       1.0  0.712708131019633  0.4573001837464896  0.6721394979117858  1.0000
  O   O43       1.0  0.7114588908116843  0.9600150505121472  0.2752689531883838  1.0000
  O   O44       1.0  0.2239219529929041  0.9668672380714903  0.6800771400424162  1.0000
  O   O45       1.0  0.32882709556006834  0.46150916117582974  0.7084763919506469  1.0000
  O   O46       1.0  0.6158068503833212  0.46032664445054716  0.2677940195671069  1.0000
  O   O47       1.0  0.8275948418727271  0.9620893775092284  0.705566666323496  1.0000
  O   O48       1.0  0.11561145085569524  0.9644748263450865  0.2641135276961888  1.0000
