data_image0
_chemical_formula_structural       Si2Ge22O48
_chemical_formula_sum              "Si2 Ge22 O48"
_cell_length_a       11.06787591301553
_cell_length_b       16.2879212348785
_cell_length_c       9.55095249606928
_cell_angle_alpha    89.85144844286444
_cell_angle_beta     105.58982845161869
_cell_angle_gamma    90.37645846508231

_space_group_name_H-M_alt    "P 1"
_space_group_IT_number       1

loop_
  _space_group_symop_operation_xyz
  'x, y, z'

loop_
  _atom_site_type_symbol
  _atom_site_label
  _atom_site_symmetry_multiplicity
  _atom_site_fract_x
  _atom_site_fract_y
  _atom_site_fract_z
  _atom_site_occupancy
  Si  Si1       1.0  0.3343164839388497  0.20771474857352193  0.873853806987322  1.0000
  Si  Si2       1.0  0.5618135359458987  0.56565885261272  0.29006676847337914  1.0000
  Ge  Ge1       1.0  0.6267191252045673  0.21379751704083205  0.07859106532167262  1.0000
  Ge  Ge2       1.0  0.6304729839175671  0.7131885175959283  0.08401008788036786  1.0000
  Ge  Ge3       1.0  0.33515560056717075  0.719970525320065  0.8736113472273067  1.0000
  Ge  Ge4       1.0  0.8334755024854649  0.7069680251774707  0.8745746795889683  1.0000
  Ge  Ge5       1.0  0.13143433017554812  0.7111993800375936  0.08209657495514036  1.0000
  Ge  Ge6       1.0  0.13348446088419544  0.21558654128434518  0.07691645813687564  1.0000
  Ge  Ge7       1.0  0.8336789049564447  0.22139136128245943  0.8713980449144658  1.0000
  Ge  Ge8       1.0  0.26445967995784486  0.36106682552626373  0.30534772625694095  1.0000
  Ge  Ge9       1.0  0.663221073405361  0.36216226460207585  0.6490847456571224  1.0000
  Ge  Ge10      1.0  0.6593579974508229  0.567879701855989  0.6454278513111644  1.0000
  Ge  Ge11      1.0  0.2677995944995727  0.5644435807655184  0.3055832066138266  1.0000
  Ge  Ge12      1.0  0.7653467308989901  0.8619018587457113  0.30612712788188234  1.0000
  Ge  Ge13      1.0  0.16316424404748023  0.8630942982950359  0.6541640439163323  1.0000
  Ge  Ge14      1.0  0.16299521522741467  0.06967038539997814  0.6533540217921409  1.0000
  Ge  Ge15      1.0  0.7653614540460677  0.06682836955553066  0.301687080273855  1.0000
  Ge  Ge16      1.0  0.364773068522195  0.3595534634911441  0.6702297561061066  1.0000
  Ge  Ge17      1.0  0.5640188043562875  0.364348277265619  0.288915422547988  1.0000
  Ge  Ge18      1.0  0.3637378743542404  0.5643750757194427  0.6703774301734585  1.0000
  Ge  Ge19      1.0  0.8636131728572037  0.8626269907372028  0.6716020169186416  1.0000
  Ge  Ge20      1.0  0.06572694065635731  0.8617915783153737  0.29215838206142974  1.0000
  Ge  Ge21      1.0  0.0671510078003746  0.06740491421956  0.2908425976914795  1.0000
  Ge  Ge22      1.0  0.8623712743520392  0.06733550306433388  0.6670620852930549  1.0000
  O   O1        1.0  0.48961236808502806  0.19455233536829794  0.935479175978058  1.0000
  O   O2        1.0  0.501120052317358  0.7333356242454117  0.9314909688581051  1.0000
  O   O3        1.0  0.9987056668951287  0.6908767518006641  0.9332268239163035  1.0000
  O   O4        1.0  0.9996933799254869  0.2339115184257683  0.9289210482691224  1.0000
  O   O5        1.0  0.2896032197335531  0.12843561775895365  0.7599095415133915  1.0000
  O   O6        1.0  0.6400385132636557  0.12775885531190612  0.19832949906695851  1.0000
  O   O7        1.0  0.6414967873494158  0.7990486036168003  0.20301153722088938  1.0000
  O   O8        1.0  0.29393302622041684  0.8067549282850753  0.756711410348246  1.0000
  O   O9        1.0  0.7896402112819223  0.6275091256874746  0.7421328203178961  1.0000
  O   O10       1.0  0.1431561942132165  0.6260394960718308  0.20300791376040586  1.0000
  O   O11       1.0  0.1406587546549714  0.299360773795629  0.19930531585910594  1.0000
  O   O12       1.0  0.795387264629346  0.30735383488380913  0.7520879856944429  1.0000
  O   O13       1.0  0.3008044027521149  0.2984575661876599  0.7870706825950657  1.0000
  O   O14       1.0  0.6278791475763819  0.3113642928460922  0.1635560121991419  1.0000
  O   O15       1.0  0.6211553030116862  0.619162778871555  0.17549562220439738  1.0000
  O   O16       1.0  0.2947983102651794  0.6230533280654622  0.7853300473275319  1.0000
  O   O17       1.0  0.7977286461491849  0.8059387520736399  0.7929254425197553  1.0000
  O   O18       1.0  0.1308902416075334  0.807829980190758  0.169136327215362  1.0000
  O   O19       1.0  0.1343852334771136  0.1191781189290729  0.16613046567647857  1.0000
  O   O20       1.0  0.792115864808616  0.12495965926706686  0.7819476650621352  1.0000
  O   O21       1.0  0.2692962970243129  0.20803990657420274  0.012328495053564642  1.0000
  O   O22       1.0  0.7657202683924393  0.22461342009892402  0.019749395486234507  1.0000
  O   O23       1.0  0.7688375364482455  0.6984808733501132  0.02544732700031517  1.0000
  O   O24       1.0  0.27159576343107167  0.7218732598379881  0.025628279108792687  1.0000
  O   O25       1.0  0.3987930543548646  0.3460083457331835  0.2387314321624632  1.0000
  O   O26       1.0  0.5304811134957702  0.34316535244506935  0.7176982858583867  1.0000
  O   O27       1.0  0.529122445865657  0.5834595389049506  0.7193991252967731  1.0000
  O   O28       1.0  0.40531680921846835  0.5772455167190711  0.24420557830873713  1.0000
  O   O29       1.0  0.9001250255803418  0.8449491379503914  0.24107467381978825  1.0000
  O   O30       1.0  0.02908330562041453  0.8451854608537182  0.7208497341129728  1.0000
  O   O31       1.0  0.02772795459180893  0.08645311221138062  0.7177196827153823  1.0000
  O   O32       1.0  0.9016063375111525  0.0838400633456661  0.238686598776994  1.0000
  O   O33       1.0  0.28738276857928047  0.328191344951111  0.48911447076180803  1.0000
  O   O34       1.0  0.6390268151546914  0.32689436845974346  0.4666402365752013  1.0000
  O   O35       1.0  0.627262632056261  0.5989362785773616  0.46000681129829957  1.0000
  O   O36       1.0  0.28895806999411117  0.5965362061433684  0.48924998555557286  1.0000
  O   O37       1.0  0.7872430511901852  0.8305311424060912  0.4905990125146652  1.0000
  O   O38       1.0  0.1396842098908811  0.8272812182889014  0.472127606302364  1.0000
  O   O39       1.0  0.14110919553602155  0.10348183377235223  0.47008111332146374  1.0000
  O   O40       1.0  0.786834222519995  0.0986137122877089  0.48560130779032945  1.0000
  O   O41       1.0  0.20441235500884314  0.46291322347368136  0.27642765689011645  1.0000
  O   O42       1.0  0.7181834771104268  0.465700078648553  0.6723125127467499  1.0000
  O   O43       1.0  0.7067739633499395  0.9640293790938539  0.272867246172858  1.0000
  O   O44       1.0  0.21847244212534594  0.9666103870934222  0.6793958832472246  1.0000
  O   O45       1.0  0.3252171156152652  0.46162729649109524  0.7085642040366725  1.0000
  O   O46       1.0  0.602442820229316  0.46884648127402356  0.2658046825156748  1.0000
  O   O47       1.0  0.8232966982559321  0.9649854787144314  0.7062421922787016  1.0000
  O   O48       1.0  0.10893751474509403  0.9645532242883494  0.26210631698544407  1.0000
