data_image0
_chemical_formula_structural       Si2Ge22O48
_chemical_formula_sum              "Si2 Ge22 O48"
_cell_length_a       11.092759167718475
_cell_length_b       16.270478417425437
_cell_length_c       9.58019258588463
_cell_angle_alpha    89.89212692644442
_cell_angle_beta     105.8718143213151
_cell_angle_gamma    89.9804326200485

_space_group_name_H-M_alt    "P 1"
_space_group_IT_number       1

loop_
  _space_group_symop_operation_xyz
  'x, y, z'

loop_
  _atom_site_type_symbol
  _atom_site_label
  _atom_site_symmetry_multiplicity
  _atom_site_fract_x
  _atom_site_fract_y
  _atom_site_fract_z
  _atom_site_occupancy
  Si  Si1       1.0  0.2636185648812855  0.3633666460992663  0.3048654601857322  1.0000
  Si  Si2       1.0  0.6500199568690583  0.5670048313195853  0.6548899915822352  1.0000
  Ge  Ge1       1.0  0.33133403891968166  0.20630334319627944  0.8727260486610824  1.0000
  Ge  Ge2       1.0  0.6274191810928086  0.21684083682046634  0.08164645897634082  1.0000
  Ge  Ge3       1.0  0.6232173190103891  0.7190429116327973  0.08583535568692402  1.0000
  Ge  Ge4       1.0  0.3246820319988873  0.7168461280824181  0.8747673297983832  1.0000
  Ge  Ge5       1.0  0.8211004845394365  0.7065448797808663  0.872640940467067  1.0000
  Ge  Ge6       1.0  0.1183615313925219  0.7089640989575249  0.07938149865979319  1.0000
  Ge  Ge7       1.0  0.13187815543419937  0.2193522246711433  0.08537726112832994  1.0000
  Ge  Ge8       1.0  0.8332394131929242  0.22492358365314843  0.8775154330952409  1.0000
  Ge  Ge9       1.0  0.655914170318063  0.36381834974648825  0.6521215769542067  1.0000
  Ge  Ge10      1.0  0.2582677132736711  0.5644996536987996  0.30517625422163946  1.0000
  Ge  Ge11      1.0  0.7553599241974125  0.8667627254038438  0.3039922264505627  1.0000
  Ge  Ge12      1.0  0.1517791811350887  0.8582013815000524  0.6496178871783649  1.0000
  Ge  Ge13      1.0  0.15804921797034271  0.06487179936796118  0.6541462004790874  1.0000
  Ge  Ge14      1.0  0.7619404431047574  0.07080479944817737  0.30852745266446463  1.0000
  Ge  Ge15      1.0  0.357666868781573  0.3596582271608278  0.6623908543012278  1.0000
  Ge  Ge16      1.0  0.5578379170646115  0.36505790016316786  0.29292329500635106  1.0000
  Ge  Ge17      1.0  0.5581491672106162  0.5698982874741595  0.300447040566774  1.0000
  Ge  Ge18      1.0  0.356717706843317  0.5637853987190533  0.6679696113771237  1.0000
  Ge  Ge19      1.0  0.8542588387763088  0.8626993090032062  0.6687465875934511  1.0000
  Ge  Ge20      1.0  0.05489579548971512  0.8621213110505761  0.2883262566987843  1.0000
  Ge  Ge21      1.0  0.06150268582930061  0.06753820597796614  0.29263486029425123  1.0000
  Ge  Ge22      1.0  0.8602875934267882  0.0680072418306057  0.6732567848370001  1.0000
  O   O1        1.0  0.49758703338837434  0.19553270222820576  0.9299670039113042  1.0000
  O   O2        1.0  0.4900291542287367  0.7315079549127056  0.9344157474024145  1.0000
  O   O3        1.0  0.9861613147090287  0.6891299189873605  0.929530694510163  1.0000
  O   O4        1.0  0.9984057099385087  0.24071660492769664  0.9377794568873934  1.0000
  O   O5        1.0  0.29137337393100254  0.11663608814062268  0.7631113008339641  1.0000
  O   O6        1.0  0.6381011121912894  0.13410126675759243  0.2072477066837367  1.0000
  O   O7        1.0  0.6287706361601599  0.8083691905525453  0.19564656308823547  1.0000
  O   O8        1.0  0.2823499684810361  0.8007266180620851  0.7510226813989145  1.0000
  O   O9        1.0  0.7690175901165847  0.6213058561751533  0.7559201285714722  1.0000
  O   O10       1.0  0.13018804984639631  0.6230009831114518  0.1989136778301951  1.0000
  O   O11       1.0  0.1486302156321408  0.30429905450797023  0.20631801005988473  1.0000
  O   O12       1.0  0.7897515562900927  0.31070751936084556  0.757873219453558  1.0000
  O   O13       1.0  0.28535462248262544  0.2988148221182287  0.771158154009915  1.0000
  O   O14       1.0  0.6194138288587199  0.3140651152913619  0.1640369049359516  1.0000
  O   O15       1.0  0.6311597977273136  0.626616292930482  0.18801963574803707  1.0000
  O   O16       1.0  0.289150524735439  0.6194437673751664  0.7874395886552888  1.0000
  O   O17       1.0  0.7845518173950213  0.8032909747941321  0.7819355529769529  1.0000
  O   O18       1.0  0.11642914835586267  0.8061288715723899  0.1647037051689835  1.0000
  O   O19       1.0  0.12846907672279745  0.12273243380304054  0.17254190885276433  1.0000
  O   O20       1.0  0.795523184108992  0.12733337713567558  0.7909584041241345  1.0000
  O   O21       1.0  0.2696229631588616  0.20812733030216343  0.025452056550595875  1.0000
  O   O22       1.0  0.7681392083642397  0.2274131074493059  0.0276416250527431  1.0000
  O   O23       1.0  0.7613897634059426  0.707781293172625  0.026829984737519078  1.0000
  O   O24       1.0  0.2580440329740442  0.720162699081545  0.023294106485534028  1.0000
  O   O25       1.0  0.39229677779851657  0.35111467251970563  0.24677175531235976  1.0000
  O   O26       1.0  0.5230650088059315  0.34172922417719254  0.7174703007895409  1.0000
  O   O27       1.0  0.5219970776337074  0.5801310284145433  0.7145254654994471  1.0000
  O   O28       1.0  0.39258289134535335  0.585731478240391  0.24209107152721354  1.0000
  O   O29       1.0  0.8886186441419527  0.8502188369205215  0.2369240650970528  1.0000
  O   O30       1.0  0.018983858741128533  0.8422439236323928  0.7180009303928612  1.0000
  O   O31       1.0  0.02612055175045059  0.0837275585601348  0.7227075688013108  1.0000
  O   O32       1.0  0.8961665718198423  0.08487883357420849  0.24208537699443075  1.0000
  O   O33       1.0  0.2879992806271837  0.3329256013369092  0.4777258779983668  1.0000
  O   O34       1.0  0.6346035920520163  0.32803209927562715  0.4706802443928532  1.0000
  O   O35       1.0  0.6246570207202155  0.6010070840527275  0.4835838993664726  1.0000
  O   O36       1.0  0.27845173624835856  0.5969176439286885  0.4881815494413362  1.0000
  O   O37       1.0  0.7779381306065087  0.8328571989790085  0.48675217481288036  1.0000
  O   O38       1.0  0.12608379030193295  0.8240011362740117  0.46674232690520545  1.0000
  O   O39       1.0  0.1349245431722183  0.10176757285597449  0.47292144155513666  1.0000
  O   O40       1.0  0.7862040681375209  0.10189814638312059  0.49281204719536953  1.0000
  O   O41       1.0  0.2089650194828254  0.460068411608716  0.27937742475430183  1.0000
  O   O42       1.0  0.6998494008886444  0.469305564273649  0.6722049811108777  1.0000
  O   O43       1.0  0.6979985049131796  0.9696880617350753  0.27793837836047774  1.0000
  O   O44       1.0  0.2100917789257051  0.9607723659085837  0.6740502193479317  1.0000
  O   O45       1.0  0.3167972701537391  0.46108412961616113  0.7031955040199396  1.0000
  O   O46       1.0  0.6019268353088046  0.4680349970850261  0.26656772237020926  1.0000
  O   O47       1.0  0.8183853445989  0.9656004507214189  0.7082329255965423  1.0000
  O   O48       1.0  0.10183569515440316  0.9644135370575397  0.2609178493108894  1.0000
