data_image0
_chemical_formula_structural       Si2Ge22O48
_chemical_formula_sum              "Si2 Ge22 O48"
_cell_length_a       11.09022710260189
_cell_length_b       16.27235767417499
_cell_length_c       9.584504851525155
_cell_angle_alpha    89.93430360025675
_cell_angle_beta     105.88549181650706
_cell_angle_gamma    90.00234624177523

_space_group_name_H-M_alt    "P 1"
_space_group_IT_number       1

loop_
  _space_group_symop_operation_xyz
  'x, y, z'

loop_
  _atom_site_type_symbol
  _atom_site_label
  _atom_site_symmetry_multiplicity
  _atom_site_fract_x
  _atom_site_fract_y
  _atom_site_fract_z
  _atom_site_occupancy
  Si  Si1       1.0  0.26693764397777286  0.36160819673635436  0.305725916846428  1.0000
  Si  Si2       1.0  0.6573133113816144  0.3592012615013561  0.6536848815199272  1.0000
  Ge  Ge1       1.0  0.3324341616271243  0.20752007477724685  0.8726534413321694  1.0000
  Ge  Ge2       1.0  0.6295130486231773  0.21164302047041467  0.08574676000597471  1.0000
  Ge  Ge3       1.0  0.6328204576744281  0.7137708754348158  0.08321603053854719  1.0000
  Ge  Ge4       1.0  0.3347290673252569  0.7180216825257111  0.8758493861786457  1.0000
  Ge  Ge5       1.0  0.8347221010954538  0.7041791533198807  0.8752032007303419  1.0000
  Ge  Ge6       1.0  0.13209512900627424  0.7095773822426091  0.08285012310054082  1.0000
  Ge  Ge7       1.0  0.1296569446227937  0.21982533950210695  0.08321817441048922  1.0000
  Ge  Ge8       1.0  0.8310515356333809  0.22238675247336093  0.8763743240366942  1.0000
  Ge  Ge9       1.0  0.6600496810177713  0.5624083766539357  0.6552563424197213  1.0000
  Ge  Ge10      1.0  0.2664270468432251  0.5627641923693362  0.3055392112825232  1.0000
  Ge  Ge11      1.0  0.7647487155068802  0.8608609561237837  0.3055906239191877  1.0000
  Ge  Ge12      1.0  0.16042940824285962  0.8590115447409488  0.6524546938331489  1.0000
  Ge  Ge13      1.0  0.1608116500182374  0.0657076319915842  0.6520181938986652  1.0000
  Ge  Ge14      1.0  0.7637448677264581  0.06485654802585397  0.3080359135076997  1.0000
  Ge  Ge15      1.0  0.3637495812250569  0.3603913967626344  0.6625545393101969  1.0000
  Ge  Ge16      1.0  0.5616363409456809  0.3602574971616981  0.30010878651548856  1.0000
  Ge  Ge17      1.0  0.5663152671399782  0.5651601206207068  0.2955402701451927  1.0000
  Ge  Ge18      1.0  0.3615537535787174  0.564523462384247  0.6688836896426025  1.0000
  Ge  Ge19      1.0  0.8628569047598078  0.8601045439058048  0.6705948025671733  1.0000
  Ge  Ge20      1.0  0.0642896145208343  0.8611720540935089  0.29108339344849765  1.0000
  Ge  Ge21      1.0  0.06363373654675432  0.0666741336593217  0.2912526208791164  1.0000
  Ge  Ge22      1.0  0.8630276152640163  0.06539460321406414  0.6723683891031568  1.0000
  O   O1        1.0  0.49836405411035867  0.1957216679837467  0.933234960011298  1.0000
  O   O2        1.0  0.5007572145179651  0.7305188843382763  0.9318618795618829  1.0000
  O   O3        1.0  0.0008101191265188464  0.6921298942036712  0.9308814418193165  1.0000
  O   O4        1.0  0.9951666514077525  0.24293226064400572  0.9377789028092767  1.0000
  O   O5        1.0  0.29303530702866293  0.11923187677351144  0.759430206003226  1.0000
  O   O6        1.0  0.637710854479908  0.12490876163982861  0.20233743647331648  1.0000
  O   O7        1.0  0.6398048347952698  0.7995594539407798  0.20136678983021702  1.0000
  O   O8        1.0  0.29248704596204267  0.8037733506319779  0.7563853527515663  1.0000
  O   O9        1.0  0.7927228371251978  0.6152543895143513  0.7637204239040526  1.0000
  O   O10       1.0  0.14015869485749066  0.6224240238940028  0.19871705556340194  1.0000
  O   O11       1.0  0.15035634615062834  0.3034678920646885  0.20750735726053937  1.0000
  O   O12       1.0  0.7774023771861344  0.30471853521032216  0.7526778866267858  1.0000
  O   O13       1.0  0.2918562905356565  0.3012188231852556  0.7737350239411822  1.0000
  O   O14       1.0  0.6294245847893436  0.30572971654582304  0.18043294010981148  1.0000
  O   O15       1.0  0.6341964445109389  0.6178471409664531  0.17375116706427202  1.0000
  O   O16       1.0  0.29297280079667476  0.6218424818808979  0.7854676355510533  1.0000
  O   O17       1.0  0.7930919249398065  0.7999201663278601  0.7827065521489104  1.0000
  O   O18       1.0  0.1305855431332455  0.8059797573462035  0.1707359241971829  1.0000
  O   O19       1.0  0.1260464802831633  0.12248258523292052  0.16791929950687065  1.0000
  O   O20       1.0  0.7983229009213908  0.1241831983590609  0.7907099085812619  1.0000
  O   O21       1.0  0.2668807786677001  0.20894231274289352  0.022178643636915036  1.0000
  O   O22       1.0  0.7683826798994065  0.22348236349590433  0.028316595928087093  1.0000
  O   O23       1.0  0.7731141539265259  0.7045400092530029  0.027950295818984096  1.0000
  O   O24       1.0  0.2722318969587359  0.7210170745165325  0.027724012094918468  1.0000
  O   O25       1.0  0.3956914143021553  0.3474028218714212  0.24814544220816875  1.0000
  O   O26       1.0  0.5292950163683693  0.3443955861799542  0.7130306953160349  1.0000
  O   O27       1.0  0.5269424376691102  0.5825948155113558  0.721009326719311  1.0000
  O   O28       1.0  0.4008930981049237  0.5819528429946048  0.2417578820903544  1.0000
  O   O29       1.0  0.8983320795876977  0.8466811531943644  0.23807507067837505  1.0000
  O   O30       1.0  0.028319976498610074  0.8422582434928148  0.7216874788531454  1.0000
  O   O31       1.0  0.02833991285308561  0.08349961170742988  0.7201031111769023  1.0000
  O   O32       1.0  0.8976853062638925  0.08109309304323183  0.24196409756233658  1.0000
  O   O33       1.0  0.2910568414714702  0.3323624943850136  0.47911939013441907  1.0000
  O   O34       1.0  0.6317833857691313  0.32687923689622356  0.48140934424565324  1.0000
  O   O35       1.0  0.6390708849000651  0.6004563624431835  0.47523081899144193  1.0000
  O   O36       1.0  0.28654121570729507  0.5965937234155543  0.4876885420318416  1.0000
  O   O37       1.0  0.7893559796730771  0.828200147079915  0.48911849738487734  1.0000
  O   O38       1.0  0.13497300012046054  0.8239238123163144  0.47014866064984706  1.0000
  O   O39       1.0  0.1369839240511306  0.1023277078382735  0.4706478042071496  1.0000
  O   O40       1.0  0.7864121188049561  0.09727457596188534  0.4914331436654473  1.0000
  O   O41       1.0  0.21464997647468206  0.45884016548426537  0.27983818938289307  1.0000
  O   O42       1.0  0.7056825370860509  0.4571703886654366  0.6728939063078184  1.0000
  O   O43       1.0  0.7034209772705889  0.9627957865495717  0.2785573620867465  1.0000
  O   O44       1.0  0.2158477831286373  0.9623279624199689  0.6735909435056194  1.0000
  O   O45       1.0  0.3220947047055012  0.46169150217679783  0.7033846474659762  1.0000
  O   O46       1.0  0.6081617812270428  0.4618972341115295  0.26848797406831776  1.0000
  O   O47       1.0  0.8239979815844455  0.962597862162555  0.7087760849732115  1.0000
  O   O48       1.0  0.10784220868004508  0.9640371175561431  0.26210806081381977  1.0000
