data_image0
_chemical_formula_structural       Si2Ge22O48
_chemical_formula_sum              "Si2 Ge22 O48"
_cell_length_a       11.016193268865587
_cell_length_b       16.29483471506045
_cell_length_c       9.57466029032146
_cell_angle_alpha    89.75908972804544
_cell_angle_beta     105.72887904861605
_cell_angle_gamma    90.39736633428359

_space_group_name_H-M_alt    "P 1"
_space_group_IT_number       1

loop_
  _space_group_symop_operation_xyz
  'x, y, z'

loop_
  _atom_site_type_symbol
  _atom_site_label
  _atom_site_symmetry_multiplicity
  _atom_site_fract_x
  _atom_site_fract_y
  _atom_site_fract_z
  _atom_site_occupancy
  Si  Si1       1.0  0.33715036957771033  0.20685473274660124  0.8736427685472884  1.0000
  Si  Si2       1.0  0.633939970615004  0.7153529619201106  0.08271387196476708  1.0000
  Ge  Ge1       1.0  0.6309094872883554  0.2117216901280895  0.07787694212619053  1.0000
  Ge  Ge2       1.0  0.3409749570419962  0.7183529649749357  0.8795222990810012  1.0000
  Ge  Ge3       1.0  0.8334089732492548  0.7086129541423252  0.8777334092512796  1.0000
  Ge  Ge4       1.0  0.1349589430608876  0.7115531080352772  0.08671898818271162  1.0000
  Ge  Ge5       1.0  0.1378933183521027  0.21446110523642656  0.07781555028999616  1.0000
  Ge  Ge6       1.0  0.8367879453546803  0.21888704501174214  0.8700383499234405  1.0000
  Ge  Ge7       1.0  0.2671986880295084  0.3609910627544241  0.30466378176556497  1.0000
  Ge  Ge8       1.0  0.6664083437450115  0.3606906664311448  0.6490146693765686  1.0000
  Ge  Ge9       1.0  0.6652848982256117  0.5667228255426028  0.6511990890520255  1.0000
  Ge  Ge10      1.0  0.26563412448622764  0.5644154702937352  0.3076030344961746  1.0000
  Ge  Ge11      1.0  0.7687018586394403  0.8592510351968548  0.3019789683656789  1.0000
  Ge  Ge12      1.0  0.16723308385536445  0.8612207536390761  0.6583206460819954  1.0000
  Ge  Ge13      1.0  0.16600659136537066  0.06778220578593429  0.6551079114787235  1.0000
  Ge  Ge14      1.0  0.7681703073495184  0.06407373928730574  0.29967355114957706  1.0000
  Ge  Ge15      1.0  0.36633700608508807  0.35849420638336094  0.6692386968785915  1.0000
  Ge  Ge16      1.0  0.5689986170320631  0.3632172250610336  0.28815835453641436  1.0000
  Ge  Ge17      1.0  0.567900822397338  0.5679905407717174  0.2905712678963916  1.0000
  Ge  Ge18      1.0  0.3650101486211933  0.5631857690000704  0.6715863247301218  1.0000
  Ge  Ge19      1.0  0.8637704729421058  0.8605794574427799  0.6669293812936262  1.0000
  Ge  Ge20      1.0  0.07310814701570251  0.8611207008303213  0.29689969225519003  1.0000
  Ge  Ge21      1.0  0.07271854552506302  0.06664569850765882  0.29355539824949695  1.0000
  Ge  Ge22      1.0  0.8627286305270675  0.06535213387996194  0.6642652806847752  1.0000
  O   O1        1.0  0.4937030692065444  0.19532183726503366  0.932701032172054  1.0000
  O   O2        1.0  0.5073034451157309  0.7313256779727938  0.9434091408503359  1.0000
  O   O3        1.0  0.00026625178918967423  0.6969966347558686  0.9372051199656937  1.0000
  O   O4        1.0  0.003958227271370804  0.22980103700072252  0.9276822505359  1.0000
  O   O5        1.0  0.2926539196625273  0.1263733596531501  0.7631065367103066  1.0000
  O   O6        1.0  0.6422143374971925  0.1245019956757416  0.1943988659603693  1.0000
  O   O7        1.0  0.6470839035565593  0.7958402306044743  0.19592386462707082  1.0000
  O   O8        1.0  0.2984443937605034  0.8056843823961815  0.7639568936311135  1.0000
  O   O9        1.0  0.7956867536762566  0.6224024838260033  0.7593868005917769  1.0000
  O   O10       1.0  0.13978342372317415  0.6256205212059672  0.20460225492931064  1.0000
  O   O11       1.0  0.14350233579871285  0.2992736282424246  0.19711990536439544  1.0000
  O   O12       1.0  0.7989421979047293  0.3054797555186861  0.7520786462725599  1.0000
  O   O13       1.0  0.3011967358477805  0.29663581953159596  0.7840280098674987  1.0000
  O   O14       1.0  0.6335222726351593  0.3081853546369921  0.1660587669975675  1.0000
  O   O15       1.0  0.6295719131336657  0.6262876806297737  0.16889136394064386  1.0000
  O   O16       1.0  0.2995493388941153  0.622307924188176  0.7887844071017663  1.0000
  O   O17       1.0  0.7933898027111593  0.8039847366591881  0.7841833478717497  1.0000
  O   O18       1.0  0.14210335580420927  0.8076037126243297  0.17712977202417657  1.0000
  O   O19       1.0  0.14098026604318817  0.11891831560760566  0.17031857445475312  1.0000
  O   O20       1.0  0.7925816831261155  0.12336848049219828  0.7785376542047727  1.0000
  O   O21       1.0  0.2746517298722617  0.20770251688779798  0.013946370683549356  1.0000
  O   O22       1.0  0.7706926330026587  0.2223200054058963  0.019577508851737965  1.0000
  O   O23       1.0  0.7629984786832514  0.7064042162897576  0.02364680660096081  1.0000
  O   O24       1.0  0.2758976692020209  0.7185313033306208  0.030118536232342695  1.0000
  O   O25       1.0  0.40210214245565695  0.3482766777423141  0.23741272973565378  1.0000
  O   O26       1.0  0.5330518506842917  0.3425205258765639  0.7176234539442466  1.0000
  O   O27       1.0  0.5313633564341306  0.5814641233995202  0.7194361336050954  1.0000
  O   O28       1.0  0.40077400265142066  0.5806425419875322  0.2414440806882813  1.0000
  O   O29       1.0  0.9068269303796889  0.8434940562557577  0.2419283925441345  1.0000
  O   O30       1.0  0.030155375561693926  0.8431289685982046  0.7201930995740242  1.0000
  O   O31       1.0  0.028936743769114866  0.08440224817305801  0.7167743322390598  1.0000
  O   O32       1.0  0.9060644102116405  0.08201668318477061  0.23935595620029038  1.0000
  O   O33       1.0  0.2907006048689886  0.327239467306198  0.48771250565986835  1.0000
  O   O34       1.0  0.6416636137290997  0.3259717875024786  0.4666711933595266  1.0000
  O   O35       1.0  0.6416712755523055  0.6036326663638208  0.4698650000698128  1.0000
  O   O36       1.0  0.28835552821420396  0.5959681184271556  0.4913174210966212  1.0000
  O   O37       1.0  0.7886194687697085  0.8282223916852318  0.48598484948313764  1.0000
  O   O38       1.0  0.1458497078333109  0.8259670857590657  0.4767647790979018  1.0000
  O   O39       1.0  0.14572726767231764  0.10250891376165758  0.47293834957062525  1.0000
  O   O40       1.0  0.7874074728575734  0.09620459086952812  0.4825232477877306  1.0000
  O   O41       1.0  0.20458143218141522  0.4623376898543075  0.277684019504076  1.0000
  O   O42       1.0  0.7223244920720211  0.4640307404245978  0.6717944949949664  1.0000
  O   O43       1.0  0.70973586542307  0.9613580081479114  0.26853069843196425  1.0000
  O   O44       1.0  0.22202483058607575  0.9648885024902875  0.6831209083821858  1.0000
  O   O45       1.0  0.32574707005882647  0.4602528677693093  0.7078203418017263  1.0000
  O   O46       1.0  0.6130756594664202  0.46617675983943213  0.25949330751386324  1.0000
  O   O47       1.0  0.8230188579036916  0.9628205041181103  0.7014813419492366  1.0000
  O   O48       1.0  0.11639887228232783  0.9639369330327193  0.26727332636829626  1.0000
