data_image0
_chemical_formula_structural       Si2Ge22O48
_chemical_formula_sum              "Si2 Ge22 O48"
_cell_length_a       11.070684794117748
_cell_length_b       16.278317821903684
_cell_length_c       9.551537844571412
_cell_angle_alpha    89.9641513293712
_cell_angle_beta     105.60244171953569
_cell_angle_gamma    90.14175378610452

_space_group_name_H-M_alt    "P 1"
_space_group_IT_number       1

loop_
  _space_group_symop_operation_xyz
  'x, y, z'

loop_
  _atom_site_type_symbol
  _atom_site_label
  _atom_site_symmetry_multiplicity
  _atom_site_fract_x
  _atom_site_fract_y
  _atom_site_fract_z
  _atom_site_occupancy
  Si  Si1       1.0  0.33276823305597714  0.20613737728958448  0.8738909584061746  1.0000
  Si  Si2       1.0  0.0640604626029005  0.8625881564809701  0.29155394482481634  1.0000
  Ge  Ge1       1.0  0.6250436590645317  0.21161270524415138  0.077707516423771  1.0000
  Ge  Ge2       1.0  0.6295808322156073  0.7164944235562134  0.08050824813438001  1.0000
  Ge  Ge3       1.0  0.3320492790871758  0.7206286259745811  0.8748351751221544  1.0000
  Ge  Ge4       1.0  0.8350159708059806  0.7075473817891509  0.8749974739795615  1.0000
  Ge  Ge5       1.0  0.13090466752179847  0.7145821460304846  0.08711559489693527  1.0000
  Ge  Ge6       1.0  0.13374447753422686  0.21332562723553086  0.07957503965248702  1.0000
  Ge  Ge7       1.0  0.8336109205680454  0.2199517776275157  0.8730125098078413  1.0000
  Ge  Ge8       1.0  0.26251247703449637  0.36129133420127146  0.3069172854457415  1.0000
  Ge  Ge9       1.0  0.6609330209168947  0.3599739921285781  0.6510127614451816  1.0000
  Ge  Ge10      1.0  0.6596208901199804  0.5670754173420931  0.6527029201105576  1.0000
  Ge  Ge11      1.0  0.26209069428038495  0.5648165629374183  0.3090041436426738  1.0000
  Ge  Ge12      1.0  0.7699278706283751  0.8621572471559646  0.3043773028708771  1.0000
  Ge  Ge13      1.0  0.16072798579030026  0.8621646226910863  0.6483864469211087  1.0000
  Ge  Ge14      1.0  0.16319406978997913  0.06763029322971653  0.6527846503089545  1.0000
  Ge  Ge15      1.0  0.7664070534346471  0.06714809553050713  0.3020570653574575  1.0000
  Ge  Ge16      1.0  0.3633602880258135  0.3586383319129988  0.6726937408304361  1.0000
  Ge  Ge17      1.0  0.5628404719700147  0.3615358980691233  0.29123602329553744  1.0000
  Ge  Ge18      1.0  0.5620019171260503  0.5665307815616186  0.2927049458588706  1.0000
  Ge  Ge19      1.0  0.362367914623137  0.5636233989612449  0.6752517654192681  1.0000
  Ge  Ge20      1.0  0.8632681295027456  0.8616255883355992  0.6679336742471638  1.0000
  Ge  Ge21      1.0  0.06678383146683939  0.0646683320055621  0.2903550077327996  1.0000
  Ge  Ge22      1.0  0.8622766931481228  0.06649521669144608  0.6660277396717962  1.0000
  O   O1        1.0  0.4882659462448142  0.19305468848062968  0.9340344013024228  1.0000
  O   O2        1.0  0.4974810891649091  0.7370502057240716  0.9314575753320979  1.0000
  O   O3        1.0  0.0007912717529141499  0.6947909594263031  0.9348744741655632  1.0000
  O   O4        1.0  0.9994100421722294  0.2326636662545768  0.9324439004811966  1.0000
  O   O5        1.0  0.2886823546392349  0.1270191096418874  0.7594266536808747  1.0000
  O   O6        1.0  0.6384912091503043  0.1257117703064852  0.1974165426390025  1.0000
  O   O7        1.0  0.6431256962484395  0.8021658678435195  0.2003569109685462  1.0000
  O   O8        1.0  0.2889670520304959  0.8011858663069199  0.7443393741101156  1.0000
  O   O9        1.0  0.7927567410744564  0.621634312823208  0.7560194164331415  1.0000
  O   O10       1.0  0.14028465358282408  0.629021610987323  0.20694301105235985  1.0000
  O   O11       1.0  0.14141798453197393  0.2971495502529799  0.2024716990048227  1.0000
  O   O12       1.0  0.794423848441437  0.30621257850898503  0.754386250530957  1.0000
  O   O13       1.0  0.2983957283168841  0.2970405068111274  0.7876229692905389  1.0000
  O   O14       1.0  0.6256515107455765  0.30846313216135257  0.16492971471051274  1.0000
  O   O15       1.0  0.625681411179496  0.6199258694497997  0.167165542317991  1.0000
  O   O16       1.0  0.29555941834584337  0.6213695792289661  0.7938967178018753  1.0000
  O   O17       1.0  0.7948212679431603  0.8040581175320165  0.7853838446218242  1.0000
  O   O18       1.0  0.12502365870710266  0.8087947113591276  0.17927211581435712  1.0000
  O   O19       1.0  0.13500095707422685  0.11601925057879685  0.1662536653159035  1.0000
  O   O20       1.0  0.7931136595022451  0.12352322882967941  0.7830455938877009  1.0000
  O   O21       1.0  0.26867999573361384  0.20603155930870373  0.013149191051655093  1.0000
  O   O22       1.0  0.7646329766851471  0.22273129301818256  0.02050259005130584  1.0000
  O   O23       1.0  0.7703086019265402  0.7046478865883381  0.02598815176931138  1.0000
  O   O24       1.0  0.2687815933803771  0.7283852928014983  0.026876632146945807  1.0000
  O   O25       1.0  0.3967021489439416  0.3480708713361271  0.2392359592455862  1.0000
  O   O26       1.0  0.5290466911256497  0.3417016934606984  0.7212300392734846  1.0000
  O   O27       1.0  0.5276979160347077  0.5826626511324324  0.7238265671100529  1.0000
  O   O28       1.0  0.39583016084410344  0.5797017172854766  0.24079552103484675  1.0000
  O   O29       1.0  0.9080271853647183  0.8478469408448217  0.2451730829541783  1.0000
  O   O30       1.0  0.028900284909433253  0.8447447197514415  0.7191040636575627  1.0000
  O   O31       1.0  0.02777405740885831  0.0844516631543379  0.7169521084570428  1.0000
  O   O32       1.0  0.9021580843651819  0.08502015265110685  0.2388333530109969  1.0000
  O   O33       1.0  0.2866265227236189  0.328402986966284  0.49074416991967595  1.0000
  O   O34       1.0  0.6345149269890724  0.32299721576262824  0.4691449891190441  1.0000
  O   O35       1.0  0.6325865941208249  0.6047841087025505  0.47119429949040603  1.0000
  O   O36       1.0  0.28648515903752547  0.5955437141642611  0.49404288012915265  1.0000
  O   O37       1.0  0.7893018821115861  0.8285489276192921  0.4870854311805191  1.0000
  O   O38       1.0  0.1307997586823034  0.8321422793106221  0.4627516601397611  1.0000
  O   O39       1.0  0.1422484195155545  0.10060147604712248  0.4693121180990535  1.0000
  O   O40       1.0  0.7873928090029481  0.09974405323987234  0.4855553229161763  1.0000
  O   O41       1.0  0.20023393537799933  0.4629456494155706  0.2783055285657066  1.0000
  O   O42       1.0  0.7146693575139792  0.4637498335891702  0.6701082249075448  1.0000
  O   O43       1.0  0.7097019187639751  0.9641237864268039  0.27420836934878223  1.0000
  O   O44       1.0  0.21957262399452995  0.9646260446811695  0.6803052135183884  1.0000
  O   O45       1.0  0.32418694708080487  0.4607508083422939  0.7124638543525054  1.0000
  O   O46       1.0  0.6094751901080636  0.4643102684310082  0.2672903992645084  1.0000
  O   O47       1.0  0.8216513846432442  0.9640230625773143  0.7018970770972254  1.0000
  O   O48       1.0  0.1014014074432912  0.9599860181907163  0.2645187797592066  1.0000
