data_image0
_chemical_formula_structural       Si2Ge22O48
_chemical_formula_sum              "Si2 Ge22 O48"
_cell_length_a       11.017505726618017
_cell_length_b       16.28134637570794
_cell_length_c       9.574703427547519
_cell_angle_alpha    90.0080849776233
_cell_angle_beta     105.74473157708987
_cell_angle_gamma    89.99162571345397

_space_group_name_H-M_alt    "P 1"
_space_group_IT_number       1

loop_
  _space_group_symop_operation_xyz
  'x, y, z'

loop_
  _atom_site_type_symbol
  _atom_site_label
  _atom_site_symmetry_multiplicity
  _atom_site_fract_x
  _atom_site_fract_y
  _atom_site_fract_z
  _atom_site_occupancy
  Si  Si1       1.0  0.33436284785300324  0.20797429836709858  0.8732668453172848  1.0000
  Si  Si2       1.0  0.3346472665952612  0.7190858131691662  0.8731747292282548  1.0000
  Ge  Ge1       1.0  0.6279320034288736  0.2115360536686493  0.07721484753413681  1.0000
  Ge  Ge2       1.0  0.6281766124651029  0.7152580181515569  0.07728615943425506  1.0000
  Ge  Ge3       1.0  0.835463803586368  0.707850374623283  0.8718662765574082  1.0000
  Ge  Ge4       1.0  0.1369722259778713  0.7120239813562821  0.07962541407691567  1.0000
  Ge  Ge5       1.0  0.13670017454352015  0.2148044577871541  0.0797290768370088  1.0000
  Ge  Ge6       1.0  0.8352283811586046  0.21886308847967442  0.8718298773376666  1.0000
  Ge  Ge7       1.0  0.26375575239127486  0.3618010180414232  0.3067252823316632  1.0000
  Ge  Ge8       1.0  0.6626052731872863  0.3600735547173047  0.6509141242331811  1.0000
  Ge  Ge9       1.0  0.662687817224375  0.5667346412938954  0.6508906062713433  1.0000
  Ge  Ge10      1.0  0.2638371680064907  0.5649967576581417  0.30654528674096865  1.0000
  Ge  Ge11      1.0  0.768808554354645  0.8605454909540898  0.3000725664707818  1.0000
  Ge  Ge12      1.0  0.16620337523529113  0.860572945665268  0.6560450069398983  1.0000
  Ge  Ge13      1.0  0.16596037530762314  0.06644960177370747  0.655921302419086  1.0000
  Ge  Ge14      1.0  0.7686106514318268  0.06630903957876223  0.30020128900442156  1.0000
  Ge  Ge15      1.0  0.36294905457806337  0.36096465371277603  0.6719044381348858  1.0000
  Ge  Ge16      1.0  0.5658078179252224  0.3609485766626989  0.29204965140750394  1.0000
  Ge  Ge17      1.0  0.5659872999794644  0.5658774205766772  0.2920399014826194  1.0000
  Ge  Ge18      1.0  0.3630235578424031  0.5660237823486716  0.6717104713789029  1.0000
  Ge  Ge19      1.0  0.8620843997775137  0.8610582370183572  0.6637174369770162  1.0000
  Ge  Ge20      1.0  0.07244813971518013  0.8603072485053452  0.2931443942149092  1.0000
  Ge  Ge21      1.0  0.07228580118658355  0.06651152958738106  0.2931085671894818  1.0000
  Ge  Ge22      1.0  0.8618030762474441  0.06569034902110012  0.6637518706780987  1.0000
  O   O1        1.0  0.49111369216824513  0.19576661868455733  0.9313695746447934  1.0000
  O   O2        1.0  0.4914266420744414  0.7310056684631719  0.9313468553945461  1.0000
  O   O3        1.0  0.002530324408652488  0.6971476107471847  0.9297299759709657  1.0000
  O   O4        1.0  0.002274068171466926  0.22965532951522175  0.929811218444388  1.0000
  O   O5        1.0  0.28994793756331394  0.12739081231290092  0.7625407126577546  1.0000
  O   O6        1.0  0.6399976917538697  0.1244644082238597  0.1937615726372485  1.0000
  O   O7        1.0  0.6401692363159036  0.8023455596636024  0.1938124472719088  1.0000
  O   O8        1.0  0.29043709578549076  0.7998949043529486  0.7629263137934664  1.0000
  O   O9        1.0  0.7963593742773587  0.6206796219601465  0.7556077663476833  1.0000
  O   O10       1.0  0.14103576246636404  0.6272685308571626  0.19935315221255356  1.0000
  O   O11       1.0  0.1409452099726189  0.2994708567486993  0.1997219667082299  1.0000
  O   O12       1.0  0.796186214331596  0.3059472392443857  0.7553923707835223  1.0000
  O   O13       1.0  0.29824352024395423  0.29844260683429985  0.7856338404291549  1.0000
  O   O14       1.0  0.6301412529273105  0.30751997784590757  0.16744568880290367  1.0000
  O   O15       1.0  0.63029369186239  0.619239156016784  0.16736113871755176  1.0000
  O   O16       1.0  0.29828436649514495  0.6287602113219466  0.7851478962231574  1.0000
  O   O17       1.0  0.7923629629225716  0.8032947242558246  0.7794110509066479  1.0000
  O   O18       1.0  0.14234757566396353  0.8075405931209492  0.1724757218888902  1.0000
  O   O19       1.0  0.14204836409408889  0.11920927337249783  0.17227952084492187  1.0000
  O   O20       1.0  0.7921210726329914  0.12332772394736835  0.7796795565078025  1.0000
  O   O21       1.0  0.27274021424194195  0.20872861478980523  0.014289479641362225  1.0000
  O   O22       1.0  0.7685170788838709  0.22200568532618165  0.020868461753929746  1.0000
  O   O23       1.0  0.7688019134404556  0.7049556176912316  0.020962703363233106  1.0000
  O   O24       1.0  0.27299249858338803  0.7182345193447089  0.014182628352605699  1.0000
  O   O25       1.0  0.3987183922955404  0.34789098375701505  0.23976116332267308  1.0000
  O   O26       1.0  0.5296610164008118  0.34405721592430194  0.7207814865992928  1.0000
  O   O27       1.0  0.529766291913894  0.5827824384830873  0.7207980338558416  1.0000
  O   O28       1.0  0.39886986024618865  0.5788390320711022  0.23969291816287824  1.0000
  O   O29       1.0  0.9062583798886462  0.8422186535734189  0.23951003285613226  1.0000
  O   O30       1.0  0.028728179310543514  0.8445418466157761  0.717542547370455  1.0000
  O   O31       1.0  0.02840618797745069  0.08234969816331571  0.7173329309059387  1.0000
  O   O32       1.0  0.9061025834658569  0.08463965989215182  0.23975028916183397  1.0000
  O   O33       1.0  0.2869330912899485  0.3296376142057428  0.49037407118812626  1.0000
  O   O34       1.0  0.6365092405482907  0.32224800991135033  0.4699943648283391  1.0000
  O   O35       1.0  0.636679874625566  0.6045931394270175  0.4700036572645347  1.0000
  O   O36       1.0  0.28705354312790243  0.5972930617081329  0.49014797447595354  1.0000
  O   O37       1.0  0.7886688679999505  0.8277825135939167  0.48289268265938373  1.0000
  O   O38       1.0  0.14640169669048306  0.8266000212881361  0.47373283107268005  1.0000
  O   O39       1.0  0.14624855483522942  0.10034612713201596  0.4736097319817498  1.0000
  O   O40       1.0  0.7880231438855281  0.09895255622249456  0.48301979837886533  1.0000
  O   O41       1.0  0.20108312880304477  0.46341026748990893  0.27794853652715185  1.0000
  O   O42       1.0  0.7181856231130656  0.46338960433282983  0.6689149629515371  1.0000
  O   O43       1.0  0.7118423036382868  0.9634094527420961  0.27010645723477456  1.0000
  O   O44       1.0  0.22350451873153865  0.9635392199713526  0.685172704858467  1.0000
  O   O45       1.0  0.3235938581652497  0.4635267622409784  0.7100191149109075  1.0000
  O   O46       1.0  0.6135578063498103  0.4633843181503904  0.26800875914924877  1.0000
  O   O47       1.0  0.8191785463623201  0.9633486504350126  0.6971171007091745  1.0000
  O   O48       1.0  0.11303967520834182  0.9634190016896935  0.2625276029885443  1.0000
