data_image0
_chemical_formula_structural       Si2Ge22O48
_chemical_formula_sum              "Si2 Ge22 O48"
_cell_length_a       11.063687404050292
_cell_length_b       16.273585895230443
_cell_length_c       9.561445971256383
_cell_angle_alpha    89.95132586499372
_cell_angle_beta     105.63717830930361
_cell_angle_gamma    90.10677796662713

_space_group_name_H-M_alt    "P 1"
_space_group_IT_number       1

loop_
  _space_group_symop_operation_xyz
  'x, y, z'

loop_
  _atom_site_type_symbol
  _atom_site_label
  _atom_site_symmetry_multiplicity
  _atom_site_fract_x
  _atom_site_fract_y
  _atom_site_fract_z
  _atom_site_occupancy
  Si  Si1       1.0  0.3323196697275662  0.20906632160991998  0.8729202698683611  1.0000
  Si  Si2       1.0  0.36418604215406586  0.5627431444654584  0.6710720651934124  1.0000
  Ge  Ge1       1.0  0.6248861344439557  0.21147360984161623  0.0776159139870587  1.0000
  Ge  Ge2       1.0  0.6324739262915047  0.7152259680643052  0.08274391353275229  1.0000
  Ge  Ge3       1.0  0.3362446832696124  0.7162534692275013  0.8708063120199245  1.0000
  Ge  Ge4       1.0  0.8366715978948582  0.7059030416356563  0.8773227340752442  1.0000
  Ge  Ge5       1.0  0.13416620177394642  0.709892406480597  0.08384372245644685  1.0000
  Ge  Ge6       1.0  0.13340701021960533  0.2158551118819664  0.07847207964593597  1.0000
  Ge  Ge7       1.0  0.8330207086707762  0.21927131548150347  0.872468090175098  1.0000
  Ge  Ge8       1.0  0.2626950104806886  0.3617976830502222  0.30715369123752  1.0000
  Ge  Ge9       1.0  0.6605119525354746  0.35952866013391366  0.6506766212552778  1.0000
  Ge  Ge10      1.0  0.6565061792180709  0.5661698052304741  0.652967868353715  1.0000
  Ge  Ge11      1.0  0.26575873378429765  0.5645100309995268  0.31201243879081647  1.0000
  Ge  Ge12      1.0  0.7673016834023476  0.8612878845502224  0.3046132819724028  1.0000
  Ge  Ge13      1.0  0.16537094470717822  0.8622445954549656  0.6527501402413308  1.0000
  Ge  Ge14      1.0  0.16354518678395488  0.06865494217074347  0.6536485070497594  1.0000
  Ge  Ge15      1.0  0.7661967642585297  0.0666050245258114  0.30194855151786165  1.0000
  Ge  Ge16      1.0  0.3635271222400729  0.36140789585160793  0.6718486400371115  1.0000
  Ge  Ge17      1.0  0.5632489058401865  0.36088861541191325  0.2919759066128482  1.0000
  Ge  Ge18      1.0  0.5642054433986926  0.5659824943798221  0.2942405860070505  1.0000
  Ge  Ge19      1.0  0.8652666131027722  0.8607543993808341  0.6688087998030573  1.0000
  Ge  Ge20      1.0  0.06793561096878775  0.8614028536676082  0.2900173793756033  1.0000
  Ge  Ge21      1.0  0.06773947245521143  0.06720455748481383  0.2908178526975932  1.0000
  Ge  Ge22      1.0  0.8623369129978933  0.06566275843389381  0.6663881436111134  1.0000
  O   O1        1.0  0.4877397652704707  0.19463119446625274  0.9335283035319271  1.0000
  O   O2        1.0  0.5020155658591309  0.731293114826041  0.9295301047898364  1.0000
  O   O3        1.0  0.0018818978553365943  0.6888656322282685  0.9346410090775005  1.0000
  O   O4        1.0  0.9988170670268091  0.23280810075307667  0.9306644312535916  1.0000
  O   O5        1.0  0.287427934857547  0.13004425100729852  0.7583904416387042  1.0000
  O   O6        1.0  0.6383510611956981  0.12521086851897142  0.1966438564056105  1.0000
  O   O7        1.0  0.6401960988142992  0.8011076790499831  0.2010813951869554  1.0000
  O   O8        1.0  0.2940251899830262  0.8038882061443172  0.7559209893383986  1.0000
  O   O9        1.0  0.7887634569338611  0.6200324379127992  0.7598700027529861  1.0000
  O   O10       1.0  0.14347527658445822  0.6302019180336388  0.21506457491487535  1.0000
  O   O11       1.0  0.13971575045913606  0.2998701277335155  0.2004334903653812  1.0000
  O   O12       1.0  0.7939091606385955  0.30539394608529363  0.7535881776657446  1.0000
  O   O13       1.0  0.2990646279039171  0.3007562298701853  0.7885593747641326  1.0000
  O   O14       1.0  0.6266010174135686  0.30806547991721633  0.1659587242194069  1.0000
  O   O15       1.0  0.6306217169701425  0.6187785787678742  0.17055708770055533  1.0000
  O   O16       1.0  0.30088789491072404  0.6205947217525195  0.7773969301724313  1.0000
  O   O17       1.0  0.7987813408576512  0.8024290014768745  0.786876151309318  1.0000
  O   O18       1.0  0.1329758722882741  0.8084182493002301  0.16531137129885956  1.0000
  O   O19       1.0  0.13639377354127447  0.1195327175360082  0.16840269038706226  1.0000
  O   O20       1.0  0.7927696405763898  0.12268498951680916  0.7829918731581893  1.0000
  O   O21       1.0  0.26844498667407607  0.20903839226175433  0.012204357416307165  1.0000
  O   O22       1.0  0.7645169216452007  0.2218826161163978  0.020186658230935052  1.0000
  O   O23       1.0  0.7747221729036027  0.7061917966418416  0.030405498472540378  1.0000
  O   O24       1.0  0.2727601828927111  0.7144968023835594  0.023008368007667868  1.0000
  O   O25       1.0  0.3968933949753768  0.34779168049198583  0.23963036657229336  1.0000
  O   O26       1.0  0.5287497401756571  0.3420207851352308  0.7213390253045089  1.0000
  O   O27       1.0  0.5206545630925685  0.5787526323244632  0.7173606719158104  1.0000
  O   O28       1.0  0.397825040254948  0.578816454107227  0.24054181002941424  1.0000
  O   O29       1.0  0.9023059091573548  0.8444069043513283  0.23973471804371174  1.0000
  O   O30       1.0  0.031143306497794742  0.8443489647695034  0.7188669251842112  1.0000
  O   O31       1.0  0.027843986770430967  0.08401519857448897  0.7179317267512364  1.0000
  O   O32       1.0  0.902102286628349  0.08426401559746224  0.23881601352248108  1.0000
  O   O33       1.0  0.2862777012252168  0.3294068496037196  0.491055804961077  1.0000
  O   O34       1.0  0.6339477452974037  0.32166354555088766  0.46954157096743926  1.0000
  O   O35       1.0  0.6328271848276409  0.6048654862905911  0.47261530880820063  1.0000
  O   O36       1.0  0.296939311429122  0.5910952121713621  0.49909732521054473  1.0000
  O   O37       1.0  0.7899680206481872  0.8282503644411873  0.4880112677942023  1.0000
  O   O38       1.0  0.14269483646410658  0.8274938755566357  0.47022562937733103  1.0000
  O   O39       1.0  0.14140409585707941  0.10236525375575749  0.4705548138099563  1.0000
  O   O40       1.0  0.7876326791214305  0.09863290463097814  0.4856765559505826  1.0000
  O   O41       1.0  0.20088375409140874  0.463573415074514  0.2786179146484612  1.0000
  O   O42       1.0  0.714053259074581  0.4633300747803263  0.6691812738281421  1.0000
  O   O43       1.0  0.7087082033087727  0.9636844009488561  0.27422149821924724  1.0000
  O   O44       1.0  0.22089201641962156  0.9656866409473279  0.6804068565663226  1.0000
  O   O45       1.0  0.3291198527431717  0.4654793685238953  0.7046930324194391  1.0000
  O   O46       1.0  0.611509250951353  0.463519870803039  0.2698799212304717  1.0000
  O   O47       1.0  0.8229004452130503  0.9630062795512441  0.7029558196121685  1.0000
  O   O48       1.0  0.1095582296074048  0.9644353048736017  0.25995257141252526  1.0000
