data_image0
_chemical_formula_structural       Si2Ge22O48
_chemical_formula_sum              "Si2 Ge22 O48"
_cell_length_a       11.104681634863704
_cell_length_b       16.264693418656858
_cell_length_c       9.564091999154854
_cell_angle_alpha    89.84889860763109
_cell_angle_beta     105.66185955065036
_cell_angle_gamma    90.10121574447156

_space_group_name_H-M_alt    "P 1"
_space_group_IT_number       1

loop_
  _space_group_symop_operation_xyz
  'x, y, z'

loop_
  _atom_site_type_symbol
  _atom_site_label
  _atom_site_symmetry_multiplicity
  _atom_site_fract_x
  _atom_site_fract_y
  _atom_site_fract_z
  _atom_site_occupancy
  Si  Si1       1.0  0.2645655638226942  0.362924599005435  0.31045146950148644  1.0000
  Si  Si2       1.0  0.35925792053748185  0.3610482650784774  0.6617572612177303  1.0000
  Ge  Ge1       1.0  0.3308529857427022  0.2098214255727799  0.8681426936727411  1.0000
  Ge  Ge2       1.0  0.6256204464900142  0.21363533065002643  0.08233784552532303  1.0000
  Ge  Ge3       1.0  0.6254412361721085  0.7170899778435411  0.08113530081086415  1.0000
  Ge  Ge4       1.0  0.32869214155253906  0.7162617885275887  0.8735522681887044  1.0000
  Ge  Ge5       1.0  0.8293869383774031  0.7074820897433215  0.8750014549653243  1.0000
  Ge  Ge6       1.0  0.12610268274249525  0.7095343601070517  0.08220841877383822  1.0000
  Ge  Ge7       1.0  0.1314477511169826  0.2210934735204532  0.08578739431280165  1.0000
  Ge  Ge8       1.0  0.8330582521489959  0.22276235625674373  0.8801405476979017  1.0000
  Ge  Ge9       1.0  0.651694618112877  0.3600049678895146  0.6508067217445733  1.0000
  Ge  Ge10      1.0  0.6541739656922216  0.5669761683037426  0.6524855072798144  1.0000
  Ge  Ge11      1.0  0.2591341558912582  0.5627788040090822  0.30579953476082156  1.0000
  Ge  Ge12      1.0  0.7598947124533474  0.8634764008733734  0.3033127752921833  1.0000
  Ge  Ge13      1.0  0.1559773232458809  0.8590865550087187  0.6500925324579083  1.0000
  Ge  Ge14      1.0  0.15966380853007187  0.0655591205443501  0.6508745922433494  1.0000
  Ge  Ge15      1.0  0.7627148281891115  0.06851134342459053  0.3074089607085756  1.0000
  Ge  Ge16      1.0  0.556150091839671  0.36243301715743376  0.2929915002401756  1.0000
  Ge  Ge17      1.0  0.5581609939987866  0.5676894727800919  0.29325537411571073  1.0000
  Ge  Ge18      1.0  0.35756507506736673  0.5618102552560879  0.6697270862244702  1.0000
  Ge  Ge19      1.0  0.8585438877944102  0.8621393760832898  0.6682329323160646  1.0000
  Ge  Ge20      1.0  0.05866459370488974  0.8620461730840124  0.2877789597835096  1.0000
  Ge  Ge21      1.0  0.061975919841667546  0.06781284501097015  0.2888869015472614  1.0000
  Ge  Ge22      1.0  0.8620583402468938  0.06733484155533136  0.6715732735520442  1.0000
  O   O1        1.0  0.49591755541224136  0.19522935078184384  0.9297542981148671  1.0000
  O   O2        1.0  0.49353046230223  0.7330592907171861  0.9299483464675697  1.0000
  O   O3        1.0  0.9943921163318469  0.6922762577155048  0.931409804679368  1.0000
  O   O4        1.0  0.9961653674467386  0.2447700029906277  0.9425697328254466  1.0000
  O   O5        1.0  0.2901484351368594  0.12009314945149879  0.7588211837805225  1.0000
  O   O6        1.0  0.6363625807241914  0.1294123096646621  0.20533195836163515  1.0000
  O   O7        1.0  0.6337284947693475  0.8035857875947038  0.19831441687579998  1.0000
  O   O8        1.0  0.2849408089446674  0.8001444144641862  0.7498399315589092  1.0000
  O   O9        1.0  0.786290228993382  0.6210579228513095  0.7578325221827539  1.0000
  O   O10       1.0  0.1336880777977672  0.6234641072293161  0.20093659083447662  1.0000
  O   O11       1.0  0.15133490723172965  0.30040302417998566  0.2185101036948993  1.0000
  O   O12       1.0  0.7837159454246645  0.3058410474862717  0.7562407521705234  1.0000
  O   O13       1.0  0.29295740600275794  0.3016280802398432  0.7631286795842476  1.0000
  O   O14       1.0  0.6180452661964286  0.3108957094875785  0.16474891477136977  1.0000
  O   O15       1.0  0.6253991205909397  0.6209339404776442  0.17091234769510716  1.0000
  O   O16       1.0  0.2904884655793933  0.618023849411709  0.7894139305050495  1.0000
  O   O17       1.0  0.7897285985930167  0.8039140378843063  0.7842806338068186  1.0000
  O   O18       1.0  0.12536832164999154  0.8067715120467787  0.1676886924600928  1.0000
  O   O19       1.0  0.127333730781061  0.12215358521612296  0.16566414011403632  1.0000
  O   O20       1.0  0.8000955446037312  0.1246776418754693  0.7942125289212552  1.0000
  O   O21       1.0  0.2663812854896268  0.2158928396440003  0.019034354697257647  1.0000
  O   O22       1.0  0.7673101631040197  0.2234267716558361  0.03006866203308891  1.0000
  O   O23       1.0  0.7661256978651174  0.7070477806840436  0.026858429826969912  1.0000
  O   O24       1.0  0.2656757864237832  0.7198129486983366  0.025495247760702864  1.0000
  O   O25       1.0  0.3904887683294792  0.3509947560954261  0.24678274922831087  1.0000
  O   O26       1.0  0.515044642479315  0.344619315705681  0.7118387356085147  1.0000
  O   O27       1.0  0.5216653634016855  0.5832728420154898  0.7211632652499087  1.0000
  O   O28       1.0  0.39262795219543656  0.5819796338516402  0.2398114463526556  1.0000
  O   O29       1.0  0.8931258362130851  0.8474258272775367  0.23575085435964327  1.0000
  O   O30       1.0  0.023293992364326083  0.8432471086413997  0.7189060001068369  1.0000
  O   O31       1.0  0.027235809807266385  0.08420063601162903  0.7186252297320362  1.0000
  O   O32       1.0  0.8969929056632384  0.08499136929113345  0.2416182989996287  1.0000
  O   O33       1.0  0.29606155611782836  0.33870531136701976  0.48669976160867817  1.0000
  O   O34       1.0  0.6297754590055421  0.32304912153417686  0.4698035133857729  1.0000
  O   O35       1.0  0.6289343157720267  0.6053928765693456  0.4717351615634218  1.0000
  O   O36       1.0  0.2805379226285751  0.5946787160575976  0.4895174445880842  1.0000
  O   O37       1.0  0.7837712015271795  0.8304041686319313  0.48698669216464796  1.0000
  O   O38       1.0  0.1299281048428725  0.8251952466753227  0.4669046876475124  1.0000
  O   O39       1.0  0.1372788458786308  0.10156646699540484  0.4689703838841693  1.0000
  O   O40       1.0  0.7857261736835203  0.10050958706145995  0.49136159390509326  1.0000
  O   O41       1.0  0.20676242248292415  0.45887719607289745  0.27948112380544576  1.0000
  O   O42       1.0  0.7079146965425576  0.4632767474822971  0.6712601730735787  1.0000
  O   O43       1.0  0.7024240971482738  0.9663633501458602  0.2772119036132538  1.0000
  O   O44       1.0  0.21377999044252377  0.9619507012037852  0.6745880408661078  1.0000
  O   O45       1.0  0.3244369969755885  0.4572259976668041  0.7008133187217666  1.0000
  O   O46       1.0  0.6037628656551277  0.46495825736938345  0.2684994885247168  1.0000
  O   O47       1.0  0.820491929644291  0.9647492221504035  0.7061591354050879  1.0000
  O   O48       1.0  0.10217523721204745  0.964746280239665  0.25705117634385  1.0000
