data_image0
_chemical_formula_structural       Si2Ge22O48
_chemical_formula_sum              "Si2 Ge22 O48"
_cell_length_a       11.095265747357784
_cell_length_b       16.267593515296603
_cell_length_c       9.579640702475027
_cell_angle_alpha    89.94370972316126
_cell_angle_beta     105.85022081397024
_cell_angle_gamma    89.98719652292777

_space_group_name_H-M_alt    "P 1"
_space_group_IT_number       1

loop_
  _space_group_symop_operation_xyz
  'x, y, z'

loop_
  _atom_site_type_symbol
  _atom_site_label
  _atom_site_symmetry_multiplicity
  _atom_site_fract_x
  _atom_site_fract_y
  _atom_site_fract_z
  _atom_site_occupancy
  Si  Si1       1.0  0.2638745045710798  0.36205974563260745  0.3053901962918998  1.0000
  Si  Si2       1.0  0.1511404711027824  0.8605337259576628  0.6522892604767678  1.0000
  Ge  Ge1       1.0  0.3321672828155654  0.20524320734685417  0.8710540780881424  1.0000
  Ge  Ge2       1.0  0.6278120099212349  0.21512309367414478  0.07981827532079043  1.0000
  Ge  Ge3       1.0  0.6194034801041631  0.7201120820232246  0.07762132720683043  1.0000
  Ge  Ge4       1.0  0.3220320549877939  0.7210089398666598  0.8716608938533754  1.0000
  Ge  Ge5       1.0  0.8260315284200772  0.7103765059285364  0.8736222892863544  1.0000
  Ge  Ge6       1.0  0.12418250103513495  0.7099513041419467  0.08532136755332849  1.0000
  Ge  Ge7       1.0  0.13339309383019632  0.21779578057312973  0.08522733980906438  1.0000
  Ge  Ge8       1.0  0.8345938457160131  0.22381272665325913  0.8774960159840255  1.0000
  Ge  Ge9       1.0  0.6574285368991134  0.3617595538027966  0.6502402604498497  1.0000
  Ge  Ge10      1.0  0.6530711780811254  0.5691519016822774  0.649814182078348  1.0000
  Ge  Ge11      1.0  0.2570831166832725  0.5622282180748108  0.30426353716256366  1.0000
  Ge  Ge12      1.0  0.758826435963649  0.8643521084242684  0.3030164158266859  1.0000
  Ge  Ge13      1.0  0.15865528827118275  0.06326692483857893  0.6538661761449333  1.0000
  Ge  Ge14      1.0  0.7639604205089795  0.0695905626954242  0.30655059145466695  1.0000
  Ge  Ge15      1.0  0.35962668825195654  0.36053149593062267  0.6636681435297902  1.0000
  Ge  Ge16      1.0  0.557374425203318  0.3639630158987124  0.2910620678979149  1.0000
  Ge  Ge17      1.0  0.5563072805116679  0.5691431073130506  0.29024957818504316  1.0000
  Ge  Ge18      1.0  0.355141008616831  0.5653119545005634  0.6681890167755898  1.0000
  Ge  Ge19      1.0  0.8583578612646765  0.8639496096070713  0.6664173018205509  1.0000
  Ge  Ge20      1.0  0.0589098651558929  0.8613363369745333  0.29652119053725634  1.0000
  Ge  Ge21      1.0  0.06399441392840792  0.06664533067347315  0.29271680123463073  1.0000
  Ge  Ge22      1.0  0.8608861692130477  0.06891338259849382  0.6702063357565967  1.0000
  O   O1        1.0  0.49834612504713993  0.19412768438367228  0.9276037879559482  1.0000
  O   O2        1.0  0.4867451213693477  0.7395681300609798  0.928138521630399  1.0000
  O   O3        1.0  0.9914827619056479  0.6966251121998741  0.9337466241228191  1.0000
  O   O4        1.0  0.9996361507626906  0.23972601710631886  0.9384418869142158  1.0000
  O   O5        1.0  0.2921400108130302  0.11467982252717725  0.76350536539326  1.0000
  O   O6        1.0  0.6389683459323583  0.13119440135288724  0.2030340224688865  1.0000
  O   O7        1.0  0.6311767277372032  0.8057175812921281  0.19739066032298822  1.0000
  O   O8        1.0  0.26938800416178754  0.8042342349826044  0.7498570580438946  1.0000
  O   O9        1.0  0.7843668563894226  0.6242695688242782  0.7552889605433764  1.0000
  O   O10       1.0  0.13008277638654786  0.6205641325489212  0.1956681201955767  1.0000
  O   O11       1.0  0.15006128292772597  0.30135052825972797  0.20922780959446208  1.0000
  O   O12       1.0  0.7909968377373446  0.3082132269837711  0.7549939565216861  1.0000
  O   O13       1.0  0.2875748786573467  0.29840109888484384  0.7710113533711414  1.0000
  O   O14       1.0  0.6186708031044705  0.31205406009691067  0.16280592292088375  1.0000
  O   O15       1.0  0.6186465134242554  0.6234583363037933  0.16529978476668522  1.0000
  O   O16       1.0  0.28691577595739937  0.6233851979739631  0.78429387586647  1.0000
  O   O17       1.0  0.7893486313066503  0.8069778335819526  0.7831106960965792  1.0000
  O   O18       1.0  0.1304483142433504  0.803316876802921  0.1843403847240125  1.0000
  O   O19       1.0  0.13064983825344073  0.12068892040439341  0.17107834152359433  1.0000
  O   O20       1.0  0.7959579150616248  0.12659599716768863  0.7897533942584947  1.0000
  O   O21       1.0  0.2706877310660194  0.20788719974109734  0.024081646642115786  1.0000
  O   O22       1.0  0.7688735277290355  0.22723145875350473  0.02702155717427834  1.0000
  O   O23       1.0  0.7594612618283189  0.7093608218545719  0.022335315230326554  1.0000
  O   O24       1.0  0.26196904740555443  0.7216983398597155  0.025601015915211106  1.0000
  O   O25       1.0  0.3916446338590405  0.3513249369682064  0.2451453416331954  1.0000
  O   O26       1.0  0.5251179627875114  0.3431804260106069  0.7184147348929796  1.0000
  O   O27       1.0  0.5199118669131808  0.5852449116503874  0.7174760207050294  1.0000
  O   O28       1.0  0.3902678017442606  0.5822342568037392  0.2386218304604205  1.0000
  O   O29       1.0  0.8932516850811293  0.8462266512059771  0.23862703300900942  1.0000
  O   O30       1.0  0.023455139239023162  0.8470572467564881  0.7122847640231661  1.0000
  O   O31       1.0  0.026388556112666526  0.08575753405106044  0.7198168472377007  1.0000
  O   O32       1.0  0.899060200688106  0.08532447707101373  0.24239328648523656  1.0000
  O   O33       1.0  0.29053219593672075  0.3331208273040741  0.4791977497377046  1.0000
  O   O34       1.0  0.632540701618117  0.32573750605681473  0.4683591958357109  1.0000
  O   O35       1.0  0.6282281545427606  0.6066033714325921  0.468746957153156  1.0000
  O   O36       1.0  0.277735061311687  0.5959126928064749  0.4867349254740946  1.0000
  O   O37       1.0  0.7806099019260591  0.8316521129763691  0.48624276671378897  1.0000
  O   O38       1.0  0.125030159434785  0.8295600673440237  0.4794598666530668  1.0000
  O   O39       1.0  0.1391418246096378  0.0999488920368612  0.4731382909189045  1.0000
  O   O40       1.0  0.7858003378828021  0.10221384679183435  0.4897405160997821  1.0000
  O   O41       1.0  0.20632546188332632  0.45807966046801907  0.2793683031955656  1.0000
  O   O42       1.0  0.7092878862300663  0.4659348012814431  0.6701774750818382  1.0000
  O   O43       1.0  0.7030904127513057  0.9676687904021712  0.27567973144071073  1.0000
  O   O44       1.0  0.20249820238556157  0.9577796620577258  0.6737165665399721  1.0000
  O   O45       1.0  0.3191006620292628  0.4620366116449534  0.7054849311982181  1.0000
  O   O46       1.0  0.6029660701584603  0.4666580246262434  0.26480977436998304  1.0000
  O   O47       1.0  0.8190413176390482  0.9664277088379435  0.7038201317658127  1.0000
  O   O48       1.0  0.102897351462097  0.9631580351844925  0.26152187121899223  1.0000
