data_image0
_chemical_formula_structural       Si2Ge22O48
_chemical_formula_sum              "Si2 Ge22 O48"
_cell_length_a       11.102740561226883
_cell_length_b       16.26189373621358
_cell_length_c       9.579829293405194
_cell_angle_alpha    90.00488635923766
_cell_angle_beta     105.76676389283753
_cell_angle_gamma    90.00609853847912

_space_group_name_H-M_alt    "P 1"
_space_group_IT_number       1

loop_
  _space_group_symop_operation_xyz
  'x, y, z'

loop_
  _atom_site_type_symbol
  _atom_site_label
  _atom_site_symmetry_multiplicity
  _atom_site_fract_x
  _atom_site_fract_y
  _atom_site_fract_z
  _atom_site_occupancy
  Si  Si1       1.0  0.2636198147664783  0.36210304280765804  0.3058427594865929  1.0000
  Si  Si2       1.0  0.7636715398264092  0.06847414501408582  0.30594828750527875  1.0000
  Ge  Ge1       1.0  0.3326992639692148  0.20672951026236738  0.8746188764133522  1.0000
  Ge  Ge2       1.0  0.6298915015348703  0.2118662851517724  0.08423863695048124  1.0000
  Ge  Ge3       1.0  0.6240052820585932  0.7203409185222055  0.0817192561744437  1.0000
  Ge  Ge4       1.0  0.3264650379859026  0.7195006075607585  0.873959712188312  1.0000
  Ge  Ge5       1.0  0.826450619390977  0.7109854680684651  0.8739334789199004  1.0000
  Ge  Ge6       1.0  0.12389417006081722  0.710109715501502  0.08146543231052239  1.0000
  Ge  Ge7       1.0  0.1297762318656613  0.21878691681676304  0.08404702667007065  1.0000
  Ge  Ge8       1.0  0.8326158238237414  0.22401929448777677  0.8745881184108295  1.0000
  Ge  Ge9       1.0  0.6567103078209914  0.3628446433506762  0.6501921760549343  1.0000
  Ge  Ge10      1.0  0.6521392607536021  0.5698190954927328  0.6502607500814008  1.0000
  Ge  Ge11      1.0  0.2582607262498198  0.563118229194004  0.30210661588500926  1.0000
  Ge  Ge12      1.0  0.7581103841003944  0.8674275504223884  0.3025280484215776  1.0000
  Ge  Ge13      1.0  0.15243187076994918  0.8608247315879551  0.6505145643009606  1.0000
  Ge  Ge14      1.0  0.15694321411063936  0.06780529771114396  0.6502953731252799  1.0000
  Ge  Ge15      1.0  0.3587844559910256  0.3611347235237354  0.6634771751554481  1.0000
  Ge  Ge16      1.0  0.5573937815092264  0.36309957555504585  0.2911923177788101  1.0000
  Ge  Ge17      1.0  0.5571180715542234  0.5686033711247113  0.2899967473973201  1.0000
  Ge  Ge18      1.0  0.3544326868670316  0.5658908666913148  0.6661071255328965  1.0000
  Ge  Ge19      1.0  0.8544208564043453  0.8647838620590286  0.6665530113564557  1.0000
  Ge  Ge20      1.0  0.05716233346112765  0.8618902936172506  0.29009037673986093  1.0000
  Ge  Ge21      1.0  0.05746120874784957  0.0674341011760361  0.2910396580330861  1.0000
  Ge  Ge22      1.0  0.8589236872751  0.06950941670412107  0.6637506510657435  1.0000
  O   O1        1.0  0.4973660708351357  0.18997440447494154  0.936358284040818  1.0000
  O   O2        1.0  0.4916400100533426  0.7347345644244021  0.9303570331519211  1.0000
  O   O3        1.0  0.9915983548616808  0.6955897751464879  0.930060447530984  1.0000
  O   O4        1.0  0.9973048946147147  0.24075449993836093  0.9361756807724047  1.0000
  O   O5        1.0  0.2903026504757478  0.12008851064155476  0.7575163595163846  1.0000
  O   O6        1.0  0.6490954997979465  0.12847360876075598  0.20912842481569113  1.0000
  O   O7        1.0  0.6313452750199965  0.8084906820863382  0.19536161015317272  1.0000
  O   O8        1.0  0.2833509554556012  0.8054294005688726  0.7554150155020366  1.0000
  O   O9        1.0  0.7831416650204677  0.625276749113662  0.7548894130282492  1.0000
  O   O10       1.0  0.13132320668089265  0.6219130349970453  0.19500563430536308  1.0000
  O   O11       1.0  0.14894995650401335  0.3022245816287577  0.20886209810915127  1.0000
  O   O12       1.0  0.7900870270495897  0.310648064281152  0.7575263160007976  1.0000
  O   O13       1.0  0.29162980861400634  0.301426100449361  0.7786940534448992  1.0000
  O   O14       1.0  0.6204443527050778  0.30918892927540226  0.1663037379641146  1.0000
  O   O15       1.0  0.6253926288275687  0.624235927699423  0.1717733158839277  1.0000
  O   O16       1.0  0.2858585956443723  0.6233315403984447  0.7827890374720947  1.0000
  O   O17       1.0  0.7860973450447425  0.8073495531733089  0.7834502887174272  1.0000
  O   O18       1.0  0.12502745154455508  0.8061684538643129  0.1715956021586304  1.0000
  O   O19       1.0  0.12040741941990347  0.12150755251840095  0.16624656595369922  1.0000
  O   O20       1.0  0.791620273677265  0.12928181109441117  0.7787404452027974  1.0000
  O   O21       1.0  0.26792691790426304  0.2072155391069927  0.025116795846869388  1.0000
  O   O22       1.0  0.7679902596910979  0.2234645703089469  0.02520013285701099  1.0000
  O   O23       1.0  0.763893322163314  0.7098784579541291  0.02593803820405596  1.0000
  O   O24       1.0  0.26391227118364236  0.7206857237813533  0.02597877418828205  1.0000
  O   O25       1.0  0.39190776556645734  0.3499575267319349  0.24680487061190065  1.0000
  O   O26       1.0  0.5240651822101056  0.3438098635011921  0.7173173843637783  1.0000
  O   O27       1.0  0.5191637462416208  0.58543782290365  0.7182191461167172  1.0000
  O   O28       1.0  0.39132209668713636  0.582248414458166  0.2356900936925457  1.0000
  O   O29       1.0  0.8914663616083354  0.8476830497974656  0.236990697050208  1.0000
  O   O30       1.0  0.0190541493025216  0.844925299265858  0.7176251748933811  1.0000
  O   O31       1.0  0.024127292506036988  0.0871657348752605  0.7169298261675491  1.0000
  O   O32       1.0  0.8921030565248855  0.08105366494163961  0.24737808212607487  1.0000
  O   O33       1.0  0.2885640215064167  0.33290513824360446  0.47959662537915865  1.0000
  O   O34       1.0  0.6332785110851927  0.32616128056257804  0.46895424653752216  1.0000
  O   O35       1.0  0.6265918424973891  0.6063308847944717  0.4687776464325389  1.0000
  O   O36       1.0  0.27942766228066535  0.597074118705507  0.484584270305257  1.0000
  O   O37       1.0  0.778441857322344  0.8339406344304885  0.4850991512857823  1.0000
  O   O38       1.0  0.12790350287545502  0.8247013914361986  0.4689150072275314  1.0000
  O   O39       1.0  0.13408535014004408  0.10396886678211797  0.46885963570700495  1.0000
  O   O40       1.0  0.7880512501412892  0.09725755647096909  0.47980885877829815  1.0000
  O   O41       1.0  0.20826352035759943  0.4586532123821201  0.27948648732708065  1.0000
  O   O42       1.0  0.7091983327939566  0.46684654023484234  0.6706936798668361  1.0000
  O   O43       1.0  0.7084319903775094  0.9719145070910243  0.27872067132776823  1.0000
  O   O44       1.0  0.20934259540266326  0.9638249133160025  0.6719112502239227  1.0000
  O   O45       1.0  0.3168803564589925  0.46282039742262127  0.7024668212408696  1.0000
  O   O46       1.0  0.6019310277710165  0.4658208959155485  0.2627304962911723  1.0000
  O   O47       1.0  0.8176172287922074  0.9678660966712733  0.7037337317574075  1.0000
  O   O48       1.0  0.10110379009826838  0.9646827139441376  0.26141827528402545  1.0000
