data_image0
_chemical_formula_structural       Si2Ge22O48
_chemical_formula_sum              "Si2 Ge22 O48"
_cell_length_a       11.10013965835521
_cell_length_b       16.26989949474093
_cell_length_c       9.577844283062488
_cell_angle_alpha    89.96243170475053
_cell_angle_beta     105.8284574918188
_cell_angle_gamma    89.99088234957081

_space_group_name_H-M_alt    "P 1"
_space_group_IT_number       1

loop_
  _space_group_symop_operation_xyz
  'x, y, z'

loop_
  _atom_site_type_symbol
  _atom_site_label
  _atom_site_symmetry_multiplicity
  _atom_site_fract_x
  _atom_site_fract_y
  _atom_site_fract_z
  _atom_site_occupancy
  Si  Si1       1.0  0.2652549123078568  0.36326047881958917  0.3056748158380986  1.0000
  Si  Si2       1.0  0.15872611995473454  0.06469436715278992  0.6528279646883798  1.0000
  Ge  Ge1       1.0  0.3287327984305738  0.20444206394834064  0.8693235623173848  1.0000
  Ge  Ge2       1.0  0.6243938867743346  0.21010391668712794  0.07712423446663895  1.0000
  Ge  Ge3       1.0  0.6322830115851522  0.7150366471989835  0.08074905313363806  1.0000
  Ge  Ge4       1.0  0.3348769476867873  0.7201951364387289  0.8737263379275912  1.0000
  Ge  Ge5       1.0  0.8352056424072952  0.705807639827776  0.8742033632703005  1.0000
  Ge  Ge6       1.0  0.1326970781781805  0.7106303385878369  0.08186779974664567  1.0000
  Ge  Ge7       1.0  0.13390955670716656  0.21858306324205493  0.08852926605834573  1.0000
  Ge  Ge8       1.0  0.8347876027200241  0.21944481942002356  0.8770483761634592  1.0000
  Ge  Ge9       1.0  0.6593053315669716  0.35778907548513217  0.6486549025599039  1.0000
  Ge  Ge10      1.0  0.6604281625238465  0.5651060930914397  0.651648017705484  1.0000
  Ge  Ge11      1.0  0.2654940869231729  0.5634626170658336  0.3041833580459064  1.0000
  Ge  Ge12      1.0  0.7661491432610112  0.861567744436349  0.3037684332855358  1.0000
  Ge  Ge13      1.0  0.16047519477500488  0.8618785137844467  0.6528405025590717  1.0000
  Ge  Ge14      1.0  0.7656898575487333  0.06670896558112288  0.3061528375305339  1.0000
  Ge  Ge15      1.0  0.3617753162288524  0.3600424340498347  0.6635667313495178  1.0000
  Ge  Ge16      1.0  0.5586188189543017  0.360503875851475  0.2898243844198913  1.0000
  Ge  Ge17      1.0  0.5643654129942258  0.5655318937466659  0.291381911720298  1.0000
  Ge  Ge18      1.0  0.3627942857945538  0.5648299214937944  0.6685712736390788  1.0000
  Ge  Ge19      1.0  0.8628709296476751  0.8600424325651425  0.6679637160148564  1.0000
  Ge  Ge20      1.0  0.06605177855856538  0.8615559864359993  0.2915873273523822  1.0000
  Ge  Ge21      1.0  0.06612214329661678  0.0668854710433545  0.2976682174277372  1.0000
  Ge  Ge22      1.0  0.8660092540822941  0.06484291093550193  0.6690204625187683  1.0000
  O   O1        1.0  0.49370103013727096  0.18727740279453917  0.9273196072197678  1.0000
  O   O2        1.0  0.5007095543659507  0.7327634161972529  0.9295015285546404  1.0000
  O   O3        1.0  0.0010291368493846327  0.6934309310495194  0.9304021127092321  1.0000
  O   O4        1.0  0.9988103751569493  0.237829485014942  0.9424007057252195  1.0000
  O   O5        1.0  0.2783746285904113  0.11829630426132895  0.7541572379246265  1.0000
  O   O6        1.0  0.6390424688221903  0.1268766933292947  0.20243557706901497  1.0000
  O   O7        1.0  0.6405858403658694  0.8012213579179261  0.19850684797098742  1.0000
  O   O8        1.0  0.29296282120867484  0.8080773593604608  0.7591780414470509  1.0000
  O   O9        1.0  0.7928752496699678  0.6189133156051193  0.7577227995328626  1.0000
  O   O10       1.0  0.13992398095671488  0.6239732792252185  0.1986971439595314  1.0000
  O   O11       1.0  0.14970299208557314  0.3046489970241833  0.20712992238544392  1.0000
  O   O12       1.0  0.7915105552608958  0.30249623289366273  0.751759465005322  1.0000
  O   O13       1.0  0.29020956239151907  0.2993723789882181  0.7733037671407795  1.0000
  O   O14       1.0  0.6151199691561741  0.30743098626618576  0.15884971371942241  1.0000
  O   O15       1.0  0.631594254757612  0.6188004476127897  0.1695984356954391  1.0000
  O   O16       1.0  0.2937604943341471  0.624145496268186  0.782450513816423  1.0000
  O   O17       1.0  0.7933850905802161  0.8017554374184601  0.7826965880282885  1.0000
  O   O18       1.0  0.1328024052795813  0.8069097457023259  0.1708991260398083  1.0000
  O   O19       1.0  0.13660060362752716  0.12376933685020128  0.18284854543501125  1.0000
  O   O20       1.0  0.8026038586496991  0.12134405664394747  0.7912952665746953  1.0000
  O   O21       1.0  0.2689789369694923  0.20732563054441197  0.023573991920278314  1.0000
  O   O22       1.0  0.7647433698769959  0.2222079109850229  0.022981436774860337  1.0000
  O   O23       1.0  0.7727165514328599  0.7043736567046054  0.02628570726588464  1.0000
  O   O24       1.0  0.2725603226549836  0.72101678039715  0.02603020229001563  1.0000
  O   O25       1.0  0.39270792096479373  0.3504423386401725  0.24578417247569131  1.0000
  O   O26       1.0  0.5266152436684682  0.3404267644675144  0.7166576779569813  1.0000
  O   O27       1.0  0.528106143900367  0.5824490500258838  0.7201959851604016  1.0000
  O   O28       1.0  0.3988141619234547  0.5808775429443571  0.23753098059559238  1.0000
  O   O29       1.0  0.9006500736221678  0.845450685828359  0.23877818326706138  1.0000
  O   O30       1.0  0.02795879789562491  0.8415154357618739  0.7195027428077398  1.0000
  O   O31       1.0  0.031251316959443706  0.07991906935587421  0.7122822366229031  1.0000
  O   O32       1.0  0.9008631675874581  0.08404830515495941  0.24280629162680706  1.0000
  O   O33       1.0  0.2903279097470146  0.33358184024615417  0.47905854120246677  1.0000
  O   O34       1.0  0.6337929945371643  0.32172080694273697  0.4666577045548192  1.0000
  O   O35       1.0  0.6354537699439077  0.6024085495016658  0.47049191825164777  1.0000
  O   O36       1.0  0.28840485603784993  0.5967897214784931  0.48718785213126914  1.0000
  O   O37       1.0  0.7884221744963787  0.8281561767511767  0.48665987279538164  1.0000
  O   O38       1.0  0.13882480152969678  0.8261482481220068  0.4713237670463552  1.0000
  O   O39       1.0  0.13493002067060164  0.09725401925165032  0.4808683571411  1.0000
  O   O40       1.0  0.7872857102440626  0.09848511614035815  0.48984491733360713  1.0000
  O   O41       1.0  0.2111439184546832  0.46003612789255904  0.2802796776618172  1.0000
  O   O42       1.0  0.7140422076402113  0.46130047087991277  0.6703050046618569  1.0000
  O   O43       1.0  0.7074260666445762  0.9641238783436749  0.2758324356689327  1.0000
  O   O44       1.0  0.20712871316226608  0.9668440909525562  0.672539332745693  1.0000
  O   O45       1.0  0.32386177000269367  0.4621113622978915  0.7054565075114189  1.0000
  O   O46       1.0  0.6077934907863877  0.46246665743135035  0.264780413061451  1.0000
  O   O47       1.0  0.8237931697052778  0.9626685156269349  0.7043361945833257  1.0000
  O   O48       1.0  0.10772428267861058  0.9646813080279084  0.26191958232892704  1.0000
