data_image0
_chemical_formula_structural       Si2Ge22O48
_chemical_formula_sum              "Si2 Ge22 O48"
_cell_length_a       11.11490830988752
_cell_length_b       16.26405249458215
_cell_length_c       9.553476127569537
_cell_angle_alpha    89.9170424890679
_cell_angle_beta     105.59899936262156
_cell_angle_gamma    90.09794290960983

_space_group_name_H-M_alt    "P 1"
_space_group_IT_number       1

loop_
  _space_group_symop_operation_xyz
  'x, y, z'

loop_
  _atom_site_type_symbol
  _atom_site_label
  _atom_site_symmetry_multiplicity
  _atom_site_fract_x
  _atom_site_fract_y
  _atom_site_fract_z
  _atom_site_occupancy
  Si  Si1       1.0  0.26347910232245286  0.3622045030832237  0.3068647496169078  1.0000
  Si  Si2       1.0  0.059849977140106286  0.06650021352916449  0.28836051312621985  1.0000
  Ge  Ge1       1.0  0.32939649757633477  0.20621321682861474  0.8713776714071028  1.0000
  Ge  Ge2       1.0  0.6254445125153202  0.21206880721228963  0.07903799326088237  1.0000
  Ge  Ge3       1.0  0.6275795684933517  0.7165785357201112  0.08008380254788736  1.0000
  Ge  Ge4       1.0  0.33141332498164655  0.7202301681287369  0.8737898792038848  1.0000
  Ge  Ge5       1.0  0.8322612411583236  0.7073966763527108  0.8743534442952997  1.0000
  Ge  Ge6       1.0  0.12861263334723844  0.7117517873059573  0.0824075385397733  1.0000
  Ge  Ge7       1.0  0.1301382220945024  0.21638250263842093  0.08752750944713897  1.0000
  Ge  Ge8       1.0  0.8338314850146556  0.22214960270252054  0.8765925063715219  1.0000
  Ge  Ge9       1.0  0.6572150143607656  0.3599540872944941  0.6498365921871923  1.0000
  Ge  Ge10      1.0  0.6565526903040265  0.5674189952639914  0.6506580206487581  1.0000
  Ge  Ge11      1.0  0.26096706011113546  0.5628936712785313  0.3037662928589175  1.0000
  Ge  Ge12      1.0  0.7626944970291764  0.8624957598820899  0.3032526430979527  1.0000
  Ge  Ge13      1.0  0.15827863417083507  0.8610003739358443  0.6490648908717329  1.0000
  Ge  Ge14      1.0  0.15729198021933805  0.06667978951553953  0.6443965769022469  1.0000
  Ge  Ge15      1.0  0.7672763831080699  0.06709134563973866  0.30548897823048393  1.0000
  Ge  Ge16      1.0  0.3601970922121874  0.36105604321768026  0.665809802825664  1.0000
  Ge  Ge17      1.0  0.556561867249671  0.3616119787286077  0.29124378396514466  1.0000
  Ge  Ge18      1.0  0.5594157543211413  0.5667146418635967  0.2904465108012633  1.0000
  Ge  Ge19      1.0  0.3598480182544164  0.5656274719937687  0.6687784652261899  1.0000
  Ge  Ge20      1.0  0.8614725004924251  0.8620483010159158  0.6681633874382873  1.0000
  Ge  Ge21      1.0  0.06002614545447246  0.8644613285602357  0.2869664649513374  1.0000
  Ge  Ge22      1.0  0.8628712318218973  0.06728397090297934  0.6693622975477429  1.0000
  O   O1        1.0  0.49395183397599807  0.1896433236998067  0.9307366568129309  1.0000
  O   O2        1.0  0.4963626407324921  0.7354273708829706  0.9296239444764968  1.0000
  O   O3        1.0  0.9971192819529877  0.6926165628154226  0.9320725150677738  1.0000
  O   O4        1.0  0.9975932948873931  0.240296939937518  0.9412741284035022  1.0000
  O   O5        1.0  0.28794783735568896  0.12436606170086527  0.7434429279599022  1.0000
  O   O6        1.0  0.6415894314535227  0.12783023854135758  0.2026640469292708  1.0000
  O   O7        1.0  0.6367730368973491  0.8017190357391942  0.20054249600175958  1.0000
  O   O8        1.0  0.2889847012706127  0.8047167862060092  0.7513977811848546  1.0000
  O   O9        1.0  0.788818377501344  0.6217842219444312  0.7549200691616634  1.0000
  O   O10       1.0  0.13713578293010908  0.6252541997061817  0.20049155013868508  1.0000
  O   O11       1.0  0.1508716370560061  0.300790594068031  0.21070927478397902  1.0000
  O   O12       1.0  0.7902508730902773  0.3059193608824087  0.7528136552881426  1.0000
  O   O13       1.0  0.2910641711762523  0.303193496673052  0.7822212333230081  1.0000
  O   O14       1.0  0.6159377105723739  0.3090494548090968  0.1617643028770142  1.0000
  O   O15       1.0  0.6252471720723871  0.6195842629442277  0.16637690711944242  1.0000
  O   O16       1.0  0.29143134606096865  0.6232372639679298  0.7855860108931312  1.0000
  O   O17       1.0  0.7931536357821042  0.8042474679036964  0.7851432580576395  1.0000
  O   O18       1.0  0.12668271652983282  0.8097060906891966  0.16582627048845178  1.0000
  O   O19       1.0  0.11967165529605563  0.12136799548086077  0.1761373445073303  1.0000
  O   O20       1.0  0.7981043047155154  0.12433316017092554  0.7901664314979697  1.0000
  O   O21       1.0  0.2644529252139987  0.20102410631416381  0.022217118965996475  1.0000
  O   O22       1.0  0.7653808538953841  0.22527888976858915  0.024393147587601274  1.0000
  O   O23       1.0  0.7679957510513609  0.7059635482589894  0.02559784894780771  1.0000
  O   O24       1.0  0.26817689611423173  0.7226436857659477  0.025825681820925338  1.0000
  O   O25       1.0  0.39113203745168945  0.35025736293673243  0.24678947943482418  1.0000
  O   O26       1.0  0.5247650078197097  0.3420292368090435  0.7182893058133486  1.0000
  O   O27       1.0  0.5245635492376975  0.5842007013576332  0.7201883122775132  1.0000
  O   O28       1.0  0.3940421562272709  0.580571644024208  0.23643624385914672  1.0000
  O   O29       1.0  0.8955075166602873  0.8461752798103975  0.23513860042406404  1.0000
  O   O30       1.0  0.02616381971920242  0.843718634089148  0.7182831413415717  1.0000
  O   O31       1.0  0.02768043697275422  0.08503780380671241  0.717366023830383  1.0000
  O   O32       1.0  0.9042923337838877  0.08058512237663713  0.24460403539613407  1.0000
  O   O33       1.0  0.28853608625740657  0.33383826695788565  0.4815119892363028  1.0000
  O   O34       1.0  0.6315723982699443  0.3229270983310221  0.46814222156649665  1.0000
  O   O35       1.0  0.6300789498439998  0.6047484176486747  0.46893537338979946  1.0000
  O   O36       1.0  0.2843376686516954  0.5965257671024085  0.48707728684640267  1.0000
  O   O37       1.0  0.7868122211486926  0.8296546707782505  0.4871790030509894  1.0000
  O   O38       1.0  0.13300221824601655  0.827363099274781  0.46556935743833333  1.0000
  O   O39       1.0  0.12712061946608152  0.09756821744017721  0.45913741985661016  1.0000
  O   O40       1.0  0.7875317711803085  0.10003564698399965  0.4887271204402228  1.0000
  O   O41       1.0  0.20809881414292758  0.4589451183274292  0.27956345105301855  1.0000
  O   O42       1.0  0.7107666062966331  0.4638021454937537  0.6696081745265258  1.0000
  O   O43       1.0  0.7053094473325534  0.965303770670524  0.27606955255653653  1.0000
  O   O44       1.0  0.21482736537809752  0.9640721702752773  0.673281153603968  1.0000
  O   O45       1.0  0.32122527696681313  0.4629845465247483  0.7064783651646741  1.0000
  O   O46       1.0  0.6047473706263101  0.4638508458925862  0.2658904394887135  1.0000
  O   O47       1.0  0.8225210943668568  0.9646436489489275  0.7050763890096494  1.0000
  O   O48       1.0  0.09679859041427803  0.9689919720601944  0.26060692025108706  1.0000
