data_image0
_chemical_formula_structural       Si2Ge22O48
_chemical_formula_sum              "Si2 Ge22 O48"
_cell_length_a       11.012397673832373
_cell_length_b       16.294070794444874
_cell_length_c       9.576962982344519
_cell_angle_alpha    89.99690738383282
_cell_angle_beta     105.71804227072626
_cell_angle_gamma    90.00902409785041

_space_group_name_H-M_alt    "P 1"
_space_group_IT_number       1

loop_
  _space_group_symop_operation_xyz
  'x, y, z'

loop_
  _atom_site_type_symbol
  _atom_site_label
  _atom_site_symmetry_multiplicity
  _atom_site_fract_x
  _atom_site_fract_y
  _atom_site_fract_z
  _atom_site_occupancy
  Si  Si        1.0  0.3322825095871678  0.20688491602752762  0.8725754257617824  1.0000
  Si  Si        1.0  0.832253406975816  0.2171543789609706  0.8725908648042544  1.0000
  Ge  Ge        1.0  0.6295558592678977  0.2099494972148992  0.07675605712118662  1.0000
  Ge  Ge        1.0  0.6384977930667818  0.713185066032624  0.08474242730297539  1.0000
  Ge  Ge        1.0  0.3406931890111733  0.7176809952449371  0.8763165214948073  1.0000
  Ge  Ge        1.0  0.8407096812259706  0.7061478175441012  0.8764748551951516  1.0000
  Ge  Ge        1.0  0.13852708963371704  0.7107518059317314  0.08463746209205927  1.0000
  Ge  Ge        1.0  0.1295117968556235  0.21417734118279613  0.07657197306343169  1.0000
  Ge  Ge        1.0  0.2670392904651057  0.35900681098875376  0.3041106697980772  1.0000
  Ge  Ge        1.0  0.6654355976743498  0.35648087159081765  0.654306782440133  1.0000
  Ge  Ge        1.0  0.6670558311951452  0.5624720451937223  0.6568737450846893  1.0000
  Ge  Ge        1.0  0.268795967257388  0.563356832160551  0.306753359187142  1.0000
  Ge  Ge        1.0  0.768665524976348  0.8606143953779143  0.3068353276567648  1.0000
  Ge  Ge        1.0  0.1673287131902065  0.8614009713918444  0.6567238159852606  1.0000
  Ge  Ge        1.0  0.16573353222050502  0.06746932683657064  0.6544054868157858  1.0000
  Ge  Ge        1.0  0.7670037604039189  0.06506352427229684  0.3042815137720609  1.0000
  Ge  Ge        1.0  0.3628947403105962  0.35728768856612503  0.6683171314200513  1.0000
  Ge  Ge        1.0  0.5706984406324028  0.358130284982126  0.29349687160043986  1.0000
  Ge  Ge        1.0  0.5711348884744724  0.563408654887397  0.295443478145542  1.0000
  Ge  Ge        1.0  0.36547985692999096  0.561888461587095  0.671427520133938  1.0000
  Ge  Ge        1.0  0.8655868354714975  0.8619630587469318  0.6715132952807926  1.0000
  Ge  Ge        1.0  0.07123382001650912  0.8605830310750017  0.29522034010077075  1.0000
  Ge  Ge        1.0  0.070817359212862  0.06592911752966878  0.29346925940624374  1.0000
  Ge  Ge        1.0  0.8630971047372202  0.06667012490820436  0.6685791963787615  1.0000
  O   O1        1.0  0.48842792695873516  0.19552569608361467  0.9365303550667055  1.0000
  O   O1        1.0  0.5079886683789855  0.7290419521716318  0.9305981909192921  1.0000
  O   O1        1.0  0.007978648868227797  0.6946661004987765  0.9306277359197168  1.0000
  O   O1        1.0  0.9883892678464745  0.22866286440404776  0.936393559612928  1.0000
  O   O1        1.0  0.2923003613120455  0.1263823946268014  0.760886275991566  1.0000
  O   O1        1.0  0.6407276639349008  0.12386098818402748  0.1951369182279121  1.0000
  O   O1        1.0  0.6436469720771169  0.7986981694603761  0.20302704014856235  1.0000
  O   O1        1.0  0.29845855502204993  0.8049227703450375  0.760853404887671  1.0000
  O   O1        1.0  0.7982437421223209  0.6188960231097386  0.7610722415560405  1.0000
  O   O1        1.0  0.1437851161787811  0.6253230317973283  0.20313149424756655  1.0000
  O   O1        1.0  0.14068150250458178  0.3003011113119724  0.19485296567235957  1.0000
  O   O1        1.0  0.792017352115466  0.29755875181353064  0.7607023131702093  1.0000
  O   O1        1.0  0.2968322646711295  0.2967324248708105  0.7832320319295211  1.0000
  O   O1        1.0  0.6374295295721313  0.30536754948827605  0.17009765431085766  1.0000
  O   O1        1.0  0.6391187735410594  0.6172454001144446  0.17443664823823707  1.0000
  O   O1        1.0  0.29709702314112346  0.6217324638119744  0.7859035123139875  1.0000
  O   O1        1.0  0.7973556584179798  0.8021414731474429  0.786159365440835  1.0000
  O   O1        1.0  0.13884343350820144  0.8068073375368998  0.1738428444111015  1.0000
  O   O1        1.0  0.13736762811356326  0.11879332991843583  0.17000932419539033  1.0000
  O   O1        1.0  0.7971042914970815  0.12719727076095957  0.783562032204357  1.0000
  O   O1        1.0  0.26310396218654786  0.20708352047078507  0.007016782731279486  1.0000
  O   O1        1.0  0.7630760504393913  0.2169194427653933  0.007037128385879051  1.0000
  O   O1        1.0  0.7807224573644248  0.7041505980922801  0.030985056405803207  1.0000
  O   O1        1.0  0.2806907561658129  0.719930896455552  0.030797682035247433  1.0000
  O   O1        1.0  0.4039361574847854  0.34248438698544265  0.24158185468438714  1.0000
  O   O1        1.0  0.529525459836385  0.3402004060666748  0.7187724780064498  1.0000
  O   O1        1.0  0.5323647370839583  0.5780910537929417  0.723932068850609  1.0000
  O   O1        1.0  0.40443591292830205  0.5789592965622161  0.24146841531109806  1.0000
  O   O1        1.0  0.904673924322571  0.8444249571617882  0.24253710654637858  1.0000
  O   O1        1.0  0.03230896191613716  0.8451174892410096  0.7228920597532731  1.0000
  O   O1        1.0  0.029569568170154013  0.08438877898542003  0.7180804570647946  1.0000
  O   O1        1.0  0.9042011378581324  0.08212311863431043  0.24258209950328416  1.0000
  O   O1        1.0  0.2871228773768184  0.32600377351809917  0.4868391923111233  1.0000
  O   O1        1.0  0.6436686704590823  0.32150884275642333  0.4723339717000294  1.0000
  O   O1        1.0  0.6425956560363812  0.5988429545649786  0.47535867584689545  1.0000
  O   O1        1.0  0.2920076023099383  0.5950192470771059  0.4905689310554427  1.0000
  O   O1        1.0  0.7908260885333855  0.8293463898907337  0.49068859658785174  1.0000
  O   O1        1.0  0.1438190540844379  0.8255115080025965  0.47507265489046574  1.0000
  O   O1        1.0  0.14484913528892102  0.10203964228626262  0.4723565358227225  1.0000
  O   O1        1.0  0.786273367898345  0.09751540895909049  0.48715076577797983  1.0000
  O   O1        1.0  0.20805346009906325  0.4614603214319383  0.2760469720273213  1.0000
  O   O1        1.0  0.7231717549129225  0.45926147691704083  0.6798013727107088  1.0000
  O   O1        1.0  0.7083817626659913  0.9625610094780206  0.27512585556459823  1.0000
  O   O1        1.0  0.22314258570304  0.9646586806094379  0.6809629085235234  1.0000
  O   O1        1.0  0.32302010507585033  0.45964463611285583  0.7058726661239926  1.0000
  O   O1        1.0  0.6152987890285354  0.4608606753920537  0.2667977080985421  1.0000
  O   O1        1.0  0.824208852748222  0.964254673230518  0.7070993822577665  1.0000
  O   O1        1.0  0.11452291381707373  0.9631833951203164  0.26555356258910623  1.0000
