data_model_0
_audit_creation_method             Generated by GULP
_audit_author_name                 Salvador R. G. Balestra
_symmetry_space_group_name_H-M     'P 1             '
_symmetry_Int_Tables_number        1

loop_
_symmetry_equiv_pos_site_id
_symmetry_equiv_pos_as_xyz
_cell_length_a                       10.1781
_cell_length_b                       15.9115
_cell_length_c                        9.3444
_cell_angle_alpha                   90.1073
_cell_angle_beta                   105.5609
_cell_angle_gamma                   90.0193

loop_
_atom_site_label
_atom_site_type_symbol
_atom_site_fract_x
_atom_site_fract_y
_atom_site_fract_z
_atom_site_charge
  Si     Si        0.332282999999961    0.206885000000057    0.872574999999983  0.0000
  Si     Si        0.832271734373935    0.213585920993096    0.872890391541696  0.0000
  Ge     Ge        0.632509615272097    0.209993508171958    0.079612881052188  0.0000
  Ge     Ge        0.646748819371884    0.704470239868062    0.090933957498351  0.0000
  Ge     Ge        0.344576620285333    0.715406697162825    0.877568343325248  0.0000
  Ge     Ge        0.844262909211187    0.705134884007089    0.877149508760586  0.0000
  Ge     Ge        0.146876137437444    0.712054061527525    0.091062405208328  0.0000
  Ge     Ge        0.132251990629168    0.206400170146032    0.079265856144122  0.0000
  Ge     Ge        0.254028943955696    0.356119197249979    0.303408167107852  0.0000
  Ge     Ge        0.664200274357444    0.356049983017914    0.659650882966664  0.0000
  Ge     Ge        0.666620757666676    0.558594517269538    0.659534725485122  0.0000
  Ge     Ge        0.257230926713834    0.557373768183135    0.304023126429462  0.0000
  Ge     Ge        0.758677405619879    0.858186142200019    0.307745102498078  0.0000
  Ge     Ge        0.167230754526325    0.862458201358789    0.663497900047378  0.0000
  Ge     Ge        0.163660202919124    0.064982741282496    0.655881086766512  0.0000
  Ge     Ge        0.752837187066817    0.059383540523535    0.300065148003948  0.0000
  Ge     Ge        0.346023357700083    0.357209522485116    0.666325612099504  0.0000
  Ge     Ge        0.574634577175490    0.354321844146339    0.305007925763644  0.0000
  Ge     Ge        0.574858572026459    0.557341567557634    0.303779244482604  0.0000
  Ge     Ge        0.350402901676274    0.558319302941721    0.668195862962607  0.0000
  Ge     Ge        0.850977336203906    0.863110287012870    0.671853204002065  0.0000
  Ge     Ge        0.076356851937488    0.858592509569677    0.307791465307774  0.0000
  Ge     Ge        0.073393380806338    0.061568576035469    0.301353111424448  0.0000
  Ge     Ge        0.845552128581117    0.064174430756077    0.662982909741999  0.0000
  O3     O3        0.496427443725517    0.208761066816334    0.924135027210186  0.0000
  O1     O1        0.520225068126920    0.713037458196166    0.929020648984753  0.0000
  O1     O1        0.020037431998893    0.707272648123985    0.928906864390645  0.0000
  O3     O3        0.996325700875773    0.211161076109701    0.923807169891910  0.0000
  O3     O3        0.288179690972479    0.124458156184597    0.773384269581301  0.0000
  O1     O1        0.633005146632259    0.123767219436110    0.189614514623271  0.0000
  O1     O1        0.642880765662335    0.788073038449026    0.207030678209407  0.0000
  O1     O1        0.294810148936748    0.805116630946284    0.777184405365718  0.0000
  O1     O1        0.794291694890820    0.617535284778110    0.770120340980868  0.0000
  O1     O1        0.140907072065881    0.626172418485362    0.201125534849061  0.0000
  O1     O1        0.134540752356662    0.290429284785804    0.195028181846477  0.0000
  O3     O3        0.788236444671416    0.298160504470400    0.780583193684205  0.0000
  O3     O3        0.280307231405816    0.289696329529936    0.774448877371051  0.0000
  O1     O1        0.641573369912174    0.298584027029484    0.185148589762955  0.0000
  O1     O1        0.641584773262248    0.612404555008585    0.183690197806969  0.0000
  O1     O1        0.285181053080226    0.627694076375514    0.770951305437158  0.0000
  O1     O1        0.786300754714841    0.794897544406455    0.776722428765255  0.0000
  O1     O1        0.145135078418859    0.802154355096584    0.190918452050862  0.0000
  O1     O1        0.138351725036712    0.115784128472119    0.178292564983354  0.0000
  O3     O3        0.778899896680468    0.132994681643413    0.768447843728430  0.0000
  O3     O3        0.279056384624326    0.207147963983309    0.018597501062206  0.0000
  O3     O3        0.779433291403658    0.209621660487331    0.019089820992361  0.0000
  O1     O1        0.796893009275882    0.703776778356527    0.039306831955650  0.0000
  O1     O1        0.297205323004019    0.713029110684876    0.039771564525859  0.0000
  O1     O1        0.399650030685158    0.353251111032790    0.243723454560529  0.0000
  O1     O1        0.520926156827085    0.359546792191147    0.722896407032266  0.0000
  O1     O1        0.526014948268358    0.559030235376492    0.728265222808348  0.0000
  O1     O1        0.400156146632301    0.556458625548927    0.238967862563908  0.0000
  O1     O1        0.901591344035127    0.857948564476288    0.242546699337056  0.0000
  O1     O1        0.026510451221319    0.863476675160400    0.731940202419569  0.0000
  O1     O1        0.020551820973499    0.063015729319949    0.719624176053720  0.0000
  O1     O1        0.898469353425971    0.061122740712011    0.240435966422451  0.0000
  O1     O1        0.294557106424881    0.324004894770769    0.485412981982607  0.0000
  O1     O1        0.624197696476815    0.314891870956093    0.483193606731398  0.0000
  O1     O1        0.622396660940011    0.597592888192189    0.481106895299509  0.0000
  O1     O1        0.304953005639048    0.589367423279798    0.485806115457785  0.0000
  O1     O1        0.806232975460587    0.829153764062115    0.490702570226139  0.0000
  O1     O1        0.123652657932698    0.820891434080257    0.486613160582439  0.0000
  O1     O1        0.122994018234298    0.103651248991539    0.477903655984357  0.0000
  O1     O1        0.793425238012165    0.094386427976218    0.480789744470690  0.0000
  O1     O1        0.192688606978380    0.457082561360636    0.293956445581161  0.0000
  O1     O1        0.722411256497016    0.456850211130437    0.655169137988387  0.0000
  O1     O1        0.692778377381531    0.958265011015080    0.294040350715356  0.0000
  O1     O1        0.222278001667965    0.964070352561695    0.655042539441562  0.0000
  O1     O1        0.290424092080641    0.458139812006847    0.680731906770677  0.0000
  O1     O1        0.632498679685037    0.455628597100280    0.311321624804436  0.0000
  O1     O1        0.790565207134039    0.963394184226823    0.680930580484012  0.0000
  O1     O1        0.132640177307016    0.960530407015320    0.311521483259601  0.0000
