data_image0
_chemical_formula_structural       Si2Ge22O48
_chemical_formula_sum              "Si2 Ge22 O48"
_cell_length_a       11.117408035667072
_cell_length_b       16.272682092053802
_cell_length_c       9.539871075791815
_cell_angle_alpha    89.95666252824219
_cell_angle_beta     105.49990724749007
_cell_angle_gamma    90.01876412978054

_space_group_name_H-M_alt    "P 1"
_space_group_IT_number       1

loop_
  _space_group_symop_operation_xyz
  'x, y, z'

loop_
  _atom_site_type_symbol
  _atom_site_label
  _atom_site_symmetry_multiplicity
  _atom_site_fract_x
  _atom_site_fract_y
  _atom_site_fract_z
  _atom_site_occupancy
  Si  Si1       1.0  0.3629142918418058  0.3612329882619605  0.6679163899786539  1.0000
  Si  Si2       1.0  0.5577631470705107  0.3607514894911744  0.2904644065344925  1.0000
  Ge  Ge1       1.0  0.33160778670185803  0.20944107268281242  0.8700779398097175  1.0000
  Ge  Ge2       1.0  0.6256875390311528  0.2131305837490377  0.08582613940762404  1.0000
  Ge  Ge3       1.0  0.6299273147413442  0.7126042016192181  0.08199383587098488  1.0000
  Ge  Ge4       1.0  0.3343392083431009  0.7176892470802858  0.8739865566754886  1.0000
  Ge  Ge5       1.0  0.8342088042927734  0.7044514784493286  0.8748525889366708  1.0000
  Ge  Ge6       1.0  0.12953149509865536  0.7105418070535467  0.08064953813215996  1.0000
  Ge  Ge7       1.0  0.12612651824572027  0.2183038661693608  0.08036593712360356  1.0000
  Ge  Ge8       1.0  0.8291445432258042  0.2208645490469987  0.8765185597981082  1.0000
  Ge  Ge9       1.0  0.26731426372144557  0.3618023582474413  0.30972520007730964  1.0000
  Ge  Ge10      1.0  0.6517503803355471  0.3589504392668667  0.6456381055787734  1.0000
  Ge  Ge11      1.0  0.6598107248878733  0.5644643370499639  0.6509214899737605  1.0000
  Ge  Ge12      1.0  0.26318733183414655  0.5650803455524299  0.30647891943283323  1.0000
  Ge  Ge13      1.0  0.7627401865277879  0.8604806319531222  0.30559624122759654  1.0000
  Ge  Ge14      1.0  0.16043499070134942  0.8593083495915381  0.6509075561899081  1.0000
  Ge  Ge15      1.0  0.15955703991210252  0.06638037561069668  0.6500752057670788  1.0000
  Ge  Ge16      1.0  0.7618935269679855  0.0651761231869284  0.3081565445373248  1.0000
  Ge  Ge17      1.0  0.5604775112592969  0.5622968763418986  0.28973157751227124  1.0000
  Ge  Ge18      1.0  0.3642093310606405  0.5624937841232704  0.6708456453547538  1.0000
  Ge  Ge19      1.0  0.863903067171084  0.8600712565429891  0.6713545606989023  1.0000
  Ge  Ge20      1.0  0.061068210663314776  0.86118783528626  0.2885505492934911  1.0000
  Ge  Ge21      1.0  0.06023533807681209  0.06658792496714  0.2881107259542143  1.0000
  Ge  Ge22      1.0  0.8631416736917895  0.0652368161993736  0.6736286938479509  1.0000
  O   O1        1.0  0.49569054786054606  0.19308947960675096  0.9346274978429938  1.0000
  O   O2        1.0  0.49892605055551076  0.7337063895296012  0.9322820886950759  1.0000
  O   O3        1.0  0.9989228029174764  0.689079512010466  0.9309198630623268  1.0000
  O   O4        1.0  0.9921784244884596  0.24272836899225977  0.936490166118204  1.0000
  O   O5        1.0  0.2899663531027654  0.12284839677133451  0.7527022592146939  1.0000
  O   O6        1.0  0.6376575374817771  0.1272927282015797  0.2057277060939512  1.0000
  O   O7        1.0  0.6398464813107488  0.7970122961127692  0.2044797167294866  1.0000
  O   O8        1.0  0.2909491223855023  0.8019956703347779  0.7511317072103147  1.0000
  O   O9        1.0  0.7915719303613634  0.6199459245200907  0.7527474068152589  1.0000
  O   O10       1.0  0.1387733033415501  0.6273659231718078  0.20544775091811204  1.0000
  O   O11       1.0  0.1430858868949798  0.29814798850086033  0.21254152318153666  1.0000
  O   O12       1.0  0.7803143727161023  0.2987405318360166  0.7419180555129111  1.0000
  O   O13       1.0  0.2991742695864117  0.305070499061319  0.7761371404111214  1.0000
  O   O14       1.0  0.6173174551228863  0.30758931506515036  0.17617928783501352  1.0000
  O   O15       1.0  0.6262785950752475  0.6145820109500568  0.1646906683245697  1.0000
  O   O16       1.0  0.29711122370709586  0.6192237531418242  0.7904298679714977  1.0000
  O   O17       1.0  0.7956642063521738  0.8020019943646307  0.7882650566842766  1.0000
  O   O18       1.0  0.12550193540588409  0.8083573794720533  0.1631999496744453  1.0000
  O   O19       1.0  0.12187694496538964  0.11953170696318692  0.16015690872889732  1.0000
  O   O20       1.0  0.7989768303241783  0.12090983017793941  0.7969968593012375  1.0000
  O   O21       1.0  0.2634367222424188  0.2117223748640092  0.01852428952380687  1.0000
  O   O22       1.0  0.7635797103042034  0.22725680996009703  0.026843683590260094  1.0000
  O   O23       1.0  0.7700381208614373  0.7019482527037149  0.026510143522722945  1.0000
  O   O24       1.0  0.26957311190848143  0.7209694375362059  0.025129591303624934  1.0000
  O   O25       1.0  0.40198205719943375  0.34867084868958476  0.24415701642880216  1.0000
  O   O26       1.0  0.5182816001020409  0.34467830952782286  0.7132136856583484  1.0000
  O   O27       1.0  0.528358084786189  0.582581680378335  0.7210500300880031  1.0000
  O   O28       1.0  0.39617696193371604  0.5807586629979186  0.23808871071564236  1.0000
  O   O29       1.0  0.8961452212303607  0.8454724542994215  0.23777560389234764  1.0000
  O   O30       1.0  0.02844005855634006  0.8414977620900512  0.720325502656762  1.0000
  O   O31       1.0  0.027416516451462473  0.08457742778186776  0.7189871623840085  1.0000
  O   O32       1.0  0.8952894484154816  0.08221338940789696  0.24106145350174477  1.0000
  O   O33       1.0  0.29517780826514095  0.3331873215430333  0.49602310535109034  1.0000
  O   O34       1.0  0.6226496033539066  0.3276689050960768  0.4605210463328936  1.0000
  O   O35       1.0  0.6343546163613623  0.5996341680654532  0.4678929065061973  1.0000
  O   O36       1.0  0.28808046628533335  0.5966987244070695  0.4912267222736619  1.0000
  O   O37       1.0  0.7877385374356628  0.8285333824387796  0.49025150662234684  1.0000
  O   O38       1.0  0.13454195724014273  0.8247761080327151  0.46750622817658055  1.0000
  O   O39       1.0  0.13508122023621613  0.10202141258216182  0.4673566546885972  1.0000
  O   O40       1.0  0.7847898575021777  0.09665977365618854  0.4928542421756973  1.0000
  O   O41       1.0  0.2034223290153035  0.4628964061871609  0.27736352074452963  1.0000
  O   O42       1.0  0.7131468843059743  0.46073669760201064  0.6740103135209478  1.0000
  O   O43       1.0  0.7028304875174954  0.9627761147446344  0.27728363224483965  1.0000
  O   O44       1.0  0.21459027491295368  0.9629670930522155  0.6742809395783576  1.0000
  O   O45       1.0  0.3287769283284043  0.4584219756520241  0.7015195916927254  1.0000
  O   O46       1.0  0.5982311825126555  0.4578729957259964  0.2663014597091065  1.0000
  O   O47       1.0  0.8256058609698  0.9623518044590793  0.7107851557397227  1.0000
  O   O48       1.0  0.1037751676440455  0.9639789638705003  0.25874453225820354  1.0000
