data_image0
_chemical_formula_structural       Si2Ge22O48
_chemical_formula_sum              "Si2 Ge22 O48"
_cell_length_a       11.100103146903587
_cell_length_b       16.255064334830738
_cell_length_c       9.577388106051792
_cell_angle_alpha    89.99936371943504
_cell_angle_beta     105.73726236709803
_cell_angle_gamma    89.99676562132161

_space_group_name_H-M_alt    "P 1"
_space_group_IT_number       1

loop_
  _space_group_symop_operation_xyz
  'x, y, z'

loop_
  _atom_site_type_symbol
  _atom_site_label
  _atom_site_symmetry_multiplicity
  _atom_site_fract_x
  _atom_site_fract_y
  _atom_site_fract_z
  _atom_site_occupancy
  Si  Si1       1.0  0.2643919818410967  0.3656602915398548  0.30440472000448826  1.0000
  Si  Si2       1.0  0.2642965222906501  0.5624637296775331  0.304392900367187  1.0000
  Ge  Ge1       1.0  0.33138983766914465  0.20890034788702108  0.8725363839366683  1.0000
  Ge  Ge2       1.0  0.6274122807713478  0.21260323791570154  0.08141605262182472  1.0000
  Ge  Ge3       1.0  0.6273372289395635  0.715649803437095  0.08140833103236378  1.0000
  Ge  Ge4       1.0  0.3312696355721262  0.7192125021378302  0.8725557359201261  1.0000
  Ge  Ge5       1.0  0.8336884232038368  0.7062460438615874  0.8782298237772878  1.0000
  Ge  Ge6       1.0  0.13204545148038838  0.7068037465276243  0.08629895297809319  1.0000
  Ge  Ge7       1.0  0.1321870558308006  0.22132142376606417  0.08628707190577227  1.0000
  Ge  Ge8       1.0  0.8337905425247985  0.22193787970633105  0.8782802262545425  1.0000
  Ge  Ge9       1.0  0.6566680844487739  0.3603571625393293  0.6509707807798053  1.0000
  Ge  Ge10      1.0  0.6566003655691893  0.567819276453737  0.6509743595995591  1.0000
  Ge  Ge11      1.0  0.7631459430584026  0.8615814991078682  0.3057796668051372  1.0000
  Ge  Ge12      1.0  0.15833924361956392  0.8608397228506798  0.6512529861268811  1.0000
  Ge  Ge13      1.0  0.1584166756820208  0.06730912533787609  0.6512616649454596  1.0000
  Ge  Ge14      1.0  0.7631686108374048  0.06669358577854143  0.3058281192696077  1.0000
  Ge  Ge15      1.0  0.3580792540962864  0.3621028262244723  0.6619057022197636  1.0000
  Ge  Ge16      1.0  0.5577885902086338  0.36147225881695116  0.2929973150031839  1.0000
  Ge  Ge17      1.0  0.5576859373301061  0.5667640490412098  0.2929868094964305  1.0000
  Ge  Ge18      1.0  0.35802057524170233  0.5660159159843016  0.6618964770763425  1.0000
  Ge  Ge19      1.0  0.8608516490299228  0.8614145827607614  0.670165172194329  1.0000
  Ge  Ge20      1.0  0.06251869332781915  0.8609467997229958  0.29014930499368446  1.0000
  Ge  Ge21      1.0  0.0625735527169068  0.0672112031972699  0.29018267658498687  1.0000
  Ge  Ge22      1.0  0.8609160504483202  0.06675906890979376  0.6702299807088296  1.0000
  O   O1        1.0  0.4969118903913304  0.19516178639414355  0.9291563214527347  1.0000
  O   O2        1.0  0.49678906819244506  0.733005165475901  0.9291348814916467  1.0000
  O   O3        1.0  0.9979840246967261  0.6879450370591056  0.9387404093662427  1.0000
  O   O4        1.0  0.9981022268131704  0.24019295162502402  0.938747766915476  1.0000
  O   O5        1.0  0.29025703420133664  0.12076228368426016  0.7588930800608044  1.0000
  O   O6        1.0  0.637358180634672  0.12736321018624477  0.20181945576612248  1.0000
  O   O7        1.0  0.6372642433254527  0.800943993578311  0.20169000941824894  1.0000
  O   O8        1.0  0.29015222485638115  0.8073461459474486  0.7588711319684983  1.0000
  O   O9        1.0  0.7889613761926044  0.6216755002446669  0.7566829333953285  1.0000
  O   O10       1.0  0.14788296870361922  0.6205447061249468  0.2051325124742485  1.0000
  O   O11       1.0  0.14800706503861166  0.30756632523270105  0.20513977917033754  1.0000
  O   O12       1.0  0.7890543611107711  0.3064910555488833  0.7566607319349793  1.0000
  O   O13       1.0  0.28709831328227325  0.3023523059929322  0.7735397216818477  1.0000
  O   O14       1.0  0.6215317115407027  0.3092535568171994  0.16697615588617923  1.0000
  O   O15       1.0  0.62144809462989  0.6190203765766775  0.16703434431869893  1.0000
  O   O16       1.0  0.28703343845223495  0.6257606981754038  0.7735397197869741  1.0000
  O   O17       1.0  0.7960971384790613  0.8034669919182329  0.789785372348202  1.0000
  O   O18       1.0  0.12961810383335595  0.8040580766971132  0.17202048924482885  1.0000
  O   O19       1.0  0.12972864650519164  0.12409718391606572  0.1721001005376804  1.0000
  O   O20       1.0  0.7962309901854162  0.1246731324189487  0.7899671949150567  1.0000
  O   O21       1.0  0.2695431310009254  0.21051028729385668  0.025284436253785188  1.0000
  O   O22       1.0  0.7685375615505833  0.2235733304590583  0.028353184729536678  1.0000
  O   O23       1.0  0.7684290437422896  0.7046519424171092  0.028286917405265538  1.0000
  O   O24       1.0  0.26942199802892935  0.7175601292104805  0.025312390819207962  1.0000
  O   O25       1.0  0.3921129285128721  0.3493053323709378  0.24579019773642077  1.0000
  O   O26       1.0  0.5230270788369957  0.34339424353977166  0.7174332323073024  1.0000
  O   O27       1.0  0.5229639485195635  0.5847206013898342  0.7174599780758047  1.0000
  O   O28       1.0  0.3920012344663452  0.5788463202388514  0.24577420665429778  1.0000
  O   O29       1.0  0.8969342100689587  0.8456588624055272  0.23910807044679971  1.0000
  O   O30       1.0  0.026015968298261805  0.8437244932404058  0.7198436605440272  1.0000
  O   O31       1.0  0.02609221121909483  0.08440062002237553  0.719870511369083  1.0000
  O   O32       1.0  0.8970073885866479  0.08261300791503058  0.2392480499382745  1.0000
  O   O33       1.0  0.28709968624140675  0.3355477883545088  0.4774025050519858  1.0000
  O   O34       1.0  0.6319269294355827  0.3228405532376979  0.47003114990352063  1.0000
  O   O35       1.0  0.6317622478206278  0.605361802932864  0.4700465065432722  1.0000
  O   O36       1.0  0.2869920720869933  0.592572705425551  0.47740159266299653  1.0000
  O   O37       1.0  0.7860305893898661  0.8289602214098143  0.48929762636869567  1.0000
  O   O38       1.0  0.1340607372508618  0.8247671305700052  0.4695910560679838  1.0000
  O   O39       1.0  0.1342564893950828  0.10337665196618287  0.4696083013166644  1.0000
  O   O40       1.0  0.7860622073935375  0.09924068014724166  0.489384120068385  1.0000
  O   O41       1.0  0.2182564552754653  0.46405589650692075  0.2818825132142235  1.0000
  O   O42       1.0  0.7108646145773155  0.4640943190967596  0.670340761499952  1.0000
  O   O43       1.0  0.7040437929967418  0.964142632383671  0.2776687468763103  1.0000
  O   O44       1.0  0.21420170471029648  0.96406205166402  0.6716886693062619  1.0000
  O   O45       1.0  0.31873734671388526  0.4640544928692251  0.7028491328662555  1.0000
  O   O46       1.0  0.6044256144692698  0.46412812225021843  0.2683156053681413  1.0000
  O   O47       1.0  0.8205633490972281  0.9640892541142829  0.7057330310705495  1.0000
  O   O48       1.0  0.10449508090021938  0.964072441850781  0.25936945255831073  1.0000
