data_POSCAR_N0012.vasp
_audit_creation_method             Generated by GULP
_audit_author_name                 Salvador R. G. Balestra
_symmetry_space_group_name_H-M     'P 1             '
_symmetry_Int_Tables_number        1

loop_
_symmetry_equiv_pos_site_id
_symmetry_equiv_pos_as_xyz
_cell_length_a                       17.4469
_cell_length_b                        7.7164
_cell_length_c                       10.2261
_cell_angle_alpha                   89.7759
_cell_angle_beta                    91.2900
_cell_angle_gamma                   91.4707

loop_
_atom_site_label
_atom_site_type_symbol
_atom_site_fract_x
_atom_site_fract_y
_atom_site_fract_z
_atom_site_charge
  Ge     Ge        0.052090000000021    0.000000000000000    0.372269999999958  0.0000
  Ge     Ge        0.456444361720828    0.026084091109209    0.351912779671591  0.0000
  Ge     Ge        0.946929825774535    0.041293120839356    0.628048544934443  0.0000
  Ge     Ge        0.547214818988269    0.991160826903914    0.627215440714572  0.0000
  Ge     Ge        0.435007163420523    0.003117181155406    0.864669429945043  0.0000
  Ge     Ge        0.170419821918437    0.300082617419596    0.314935855667494  0.0000
  Ge     Ge        0.845903794534475    0.344492672199384    0.715903226973560  0.0000
  Ge     Ge        0.821013025239753    0.758784059211480    0.746764637463756  0.0000
  Ge     Ge        0.352955363712125    0.342573274817194    0.302657026136085  0.0000
  Ge     Ge        0.832967342465412    0.700617054009577    0.061289835944172  0.0000
  Ge     Ge        0.146858982104718    0.663864063980976    0.975759938265951  0.0000
  Ge     Ge        0.654722280261419    0.644390476917678    0.058141725562676  0.0000
  Si     Si        0.556476733413076    0.960764453190060    0.096921271050311  0.0000
  Si     Si        0.945807103611533    0.000984626810607    0.115952817744059  0.0000
  Si     Si        0.052780455061977    0.972214740053783    0.877966740985798  0.0000
  Si     Si        0.334754074647900    0.740230056151255    0.267872017697419  0.0000
  Si     Si        0.648563595317960    0.684852534882208    0.740649558233694  0.0000
  Si     Si        0.664589571828211    0.290958623288657    0.712772735778396  0.0000
  Si     Si        0.153965489267331    0.697726291826415    0.280774276695339  0.0000
  Si     Si        0.666707115824925    0.255637528259939    0.018279442239771  0.0000
  Si     Si        0.338925120391083    0.304235638936091    0.993811639048359  0.0000
  Si     Si        0.328021992752576    0.701929844172476    0.966956232521488  0.0000
  Si     Si        0.163245344007065    0.260212359314238    0.004629394328871  0.0000
  Si     Si        0.846197760178454    0.301058025335972    0.020684457955964  0.0000
  O1     O1        0.113557621178058    0.170840120528466    0.409406183689423  0.0000
  O3     O3        0.374088956865918    0.893038304246172    0.349140487023033  0.0000
  O1     O1        0.913013150816493    0.248776684474097    0.623314320446331  0.0000
  O3     O3        0.578905935767502    0.796596568304239    0.690041569838265  0.0000
  O1     O1        0.867599319452848    0.918003334270861    0.663129119414347  0.0000
  O3     O3        0.615207391244439    0.157919298388316    0.625496529573193  0.0000
  O3     O3        0.108688912270287    0.818892100418684    0.375202154910074  0.0000
  O1     O1        0.422809683670599    0.228762189707775    0.382589355195669  0.0000
  O1     O1        0.979290512448145    0.981146813262008    0.478393624798310  0.0000
  O1     O1        0.521971439440419    0.962050649167946    0.465220416549285  0.0000
  O3     O3        0.013807279302992    0.036985070460987    0.217481266120933  0.0000
  O3     O3        0.496496803206727    0.021748250248958    0.199156572210270  0.0000
  O3     O3        0.025086629870962    0.019324003128497    0.733544855883780  0.0000
  O1     O1        0.465728131595011    0.036829700697813    0.708516091248233  0.0000
  O2     O2        0.632157172919186    0.089291546962354    0.093715593812052  0.0000
  O3     O3        0.895383340052300    0.831969331479623    0.153969620684424  0.0000
  O3     O3        0.391967597783741    0.192453600603907    0.905346698293747  0.0000
  O3     O3        0.086369851325768    0.779802535902052    0.875526819880265  0.0000
  O3     O3        0.373786650328966    0.823561092537731    0.868426223013988  0.0000
  O2     O2        0.118831332211721    0.108542766001622    0.925346916922032  0.0000
  O3     O3        0.586751117347859    0.769987568222577    0.129460365834859  0.0000
  O2     O2        0.892112471942756    0.169041698760769    0.113189429229768  0.0000
  O3     O3        0.517543394133219    0.964018743595153    0.953736195569406  0.0000
  O2     O2        0.979742192004955    0.971487031632214    0.971631075729109  0.0000
  O3     O3        0.129940113415140    0.501328648967373    0.310949949434648  0.0000
  O3     O3        0.376308026933147    0.561108706638551    0.300742513901117  0.0000
  O1     O1        0.862299032611714    0.561892447532001    0.718396683755835  0.0000
  O2     O2        0.630768248886571    0.483843429589745    0.701709374294425  0.0000
  O1     O1        0.264002860714128    0.307907989071861    0.368136808450252  0.0000
  O2     O2        0.246096367828792    0.712626534455873    0.304575309403682  0.0000
  O3     O3        0.751564259725349    0.297385129335524    0.667450351800700  0.0000
  O3     O3        0.728198464505540    0.751213303761184    0.680423529087988  0.0000
  O3     O3        0.167038406434993    0.216812945643411    0.156973117574475  0.0000
  O2     O2        0.340213963548514    0.783599192163327    0.112527636093398  0.0000
  O3     O3        0.857996745788701    0.254201445625392    0.871044124988670  0.0000
  O3     O3        0.665274304804731    0.696339021828589    0.895562071207195  0.0000
  O1     O1        0.824893439041985    0.797981525360349    0.910928753101198  0.0000
  O2     O2        0.657280826251131    0.223994977372584    0.862795249562647  0.0000
  O3     O3        0.135167207247667    0.745686794184962    0.130834607581825  0.0000
  O3     O3        0.350897621488558    0.258398693964419    0.145013387894041  0.0000
  O3     O3        0.625366504154857    0.427598564172726    0.064698313413624  0.0000
  O3     O3        0.872961482638308    0.497751025632676    0.048209861716991  0.0000
  O2     O2        0.360319246517235    0.507573466156790    0.970356362885211  0.0000
  O3     O3        0.124183231941684    0.444285878238938    0.976598853590375  0.0000
  O2     O2        0.756064568746045    0.286408308692147    0.055399154456302  0.0000
  O1     O1        0.743936020501758    0.679908806043897    0.128482040328673  0.0000
  O2     O2        0.249884817169149    0.270877671236475    0.951509483406728  0.0000
  O3     O3        0.239463056746888    0.695584163392414    0.924740269901935  0.0000
