data_POSCAR_N0010.vasp
_audit_creation_method             Generated by GULP
_audit_author_name                 Salvador R. G. Balestra
_symmetry_space_group_name_H-M     'P 1             '
_symmetry_Int_Tables_number        1

loop_
_symmetry_equiv_pos_site_id
_symmetry_equiv_pos_as_xyz
_cell_length_a                       17.2665
_cell_length_b                        7.6662
_cell_length_c                       10.1331
_cell_angle_alpha                   86.8041
_cell_angle_beta                    89.2572
_cell_angle_gamma                   91.8648

loop_
_atom_site_label
_atom_site_type_symbol
_atom_site_fract_x
_atom_site_fract_y
_atom_site_fract_z
_atom_site_charge
  Ge     Ge        0.447909999999979    0.000000000000000    0.372269999999958  0.0000
  Ge     Ge        0.957082098042433    0.054206452727292    0.594497632879994  0.0000
  Ge     Ge        0.558390504067268    0.021498422198943    0.627545514702977  0.0000
  Ge     Ge        0.862647378330855    0.374807282647913    0.678916672582446  0.0000
  Ge     Ge        0.159190184378461    0.702663039392378    0.268852893571288  0.0000
  Ge     Ge        0.679097412448261    0.279783355252604    0.004650038421688  0.0000
  Ge     Ge        0.349506794563613    0.356322718008437    0.944364579609421  0.0000
  Ge     Ge        0.165063253020858    0.354660033185585    0.929861721483840  0.0000
  Ge     Ge        0.651557777308551    0.689266894363000    0.008562605356981  0.0000
  Ge     Ge        0.865632373277053    0.352992517740096    0.005003878463662  0.0000
  Si     Si        0.042486712050054    0.979215744702208    0.329167464341895  0.0000
  Si     Si        0.563048320155382    0.990628251241592    0.128248738279832  0.0000
  Si     Si        0.954096052701242    0.021212889976336    0.065478409460476  0.0000
  Si     Si        0.457467013513688    0.062220040972816    0.889206162960603  0.0000
  Si     Si        0.072777182577987    0.039383988020379    0.827173035232900  0.0000
  Si     Si        0.154497364023527    0.293239219599363    0.243786347213046  0.0000
  Si     Si        0.341166298645586    0.697055324464039    0.282560193697857  0.0000
  Si     Si        0.658876610911538    0.711486018762367    0.697305892922064  0.0000
  Si     Si        0.832650178565769    0.759884924862635    0.698708821581311  0.0000
  Si     Si        0.681025813027490    0.308345561590963    0.691461226240897  0.0000
  Si     Si        0.332284657793311    0.292350393540481    0.255942977466050  0.0000
  Si     Si        0.830692268391986    0.731866805732125    0.012949615959701  0.0000
  Si     Si        0.169874679599156    0.751202661561420    0.959786176129428  0.0000
  Si     Si        0.351010700023501    0.748773802399443    0.978716582616512  0.0000
  O2     O2        0.095982401702379    0.156721530463576    0.322993221819177  0.0000
  O3     O3        0.398540399143354    0.798698130666331    0.375031539864388  0.0000
  O1     O1        0.928752740981704    0.265232324340580    0.589752012648294  0.0000
  O3     O3        0.599265965679623    0.819956077271423    0.608913587248323  0.0000
  O3     O3        0.877285756244727    0.940718264751615    0.666566160256258  0.0000
  O3     O3        0.627796989382331    0.189513653077024    0.602068763905991  0.0000
  O3     O3        0.097034354686264    0.817645045209082    0.362276524939681  0.0000
  O3     O3        0.383371549503343    0.163254570742763    0.341521555003726  0.0000
  O3     O3        0.976121888221146    0.989275875186470    0.438294369481833  0.0000
  O1     O1        0.481324909611729    0.037748651550406    0.526351641245895  0.0000
  O2     O2        0.000862750269062    0.946953834957308    0.190627485187226  0.0000
  O3     O3        0.530968020950209    0.001298007721487    0.276016463463116  0.0000
  O3     O3        0.039894415916600    0.013005112744618    0.683770579303402  0.0000
  O3     O3        0.524805996766441    0.035675114452923    0.787723612992107  0.0000
  O3     O3        0.640549837034320    0.108116044245556    0.103638715029568  0.0000
  O2     O2        0.873512576368117    0.911323030288326    0.049194960274068  0.0000
  O3     O3        0.414467857094231    0.240897359608307    0.856487042154532  0.0000
  O2     O2        0.142111040720551    0.907472615033146    0.860717624489278  0.0000
  O2     O2        0.391753577435600    0.906111771309765    0.891014856368295  0.0000
  O3     O3        0.105374830021283    0.236676078646461    0.830788251508865  0.0000
  O3     O3        0.582617837308318    0.793133007308190    0.098373738745053  0.0000
  O3     O3        0.932248452840668    0.218988686944227    0.084089192487645  0.0000
  O2     O2        0.495979892986909    0.068965697506844    0.033627653573065  0.0000
  O2     O2        0.003118441844355    0.997634420405031    0.932512580238126  0.0000
  O3     O3        0.129034351617804    0.486725655225192    0.271138288322613  0.0000
  O2     O2        0.358945561179724    0.492325407990130    0.281013393885131  0.0000
  O3     O3        0.877066761300333    0.598405988551183    0.642349843430586  0.0000
  O2     O2        0.645919555216800    0.502789334038724    0.694398881682683  0.0000
  O2     O2        0.241490928326756    0.265272674167632    0.297477117842305  0.0000
  O3     O3        0.252596843480748    0.719259841755357    0.326124429595455  0.0000
  O3     O3        0.768176878533398    0.322749642978547    0.635867100572697  0.0000
  O2     O2        0.745443329143101    0.768518035294391    0.642285036303478  0.0000
  O3     O3        0.153511155287607    0.262697427298479    0.089000902546389  0.0000
  O2     O2        0.356201769930421    0.786296997557594    0.134095884317836  0.0000
  O1     O1        0.880431606975282    0.318546458291927    0.841297269139260  0.0000
  O3     O3        0.646629604069146    0.769038133553757    0.846319572697403  0.0000
  O2     O2        0.820491884080086    0.706926732521580    0.855172852547421  0.0000
  O3     O3        0.681108772616392    0.226181499316093    0.840980937862500  0.0000
  O3     O3        0.155570198313130    0.796054148616177    0.109563398490476  0.0000
  O3     O3        0.340438161565334    0.260112878674116    0.102291767396688  0.0000
  O1     O1        0.630937949141294    0.469414684936616    0.023688605402201  0.0000
  O3     O3        0.880754436991439    0.565494677534044    0.055126665046954  0.0000
  O3     O3        0.388271128389067    0.567149960875408    0.948397053791929  0.0000
  O3     O3        0.131292793011859    0.565848602618318    0.927374379234692  0.0000
  O1     O1        0.772259344011735    0.306804972276386    0.054591804300514  0.0000
  O3     O3        0.744231488046661    0.728270152901565    0.070577119223637  0.0000
  O1     O1        0.259136639600152    0.348126705849463    0.877102892229627  0.0000
  O2     O2        0.261647506817564    0.724599780724836    0.938228610035281  0.0000
