data_POSCAR_N0001.vasp
_audit_creation_method             Generated by GULP
_audit_author_name                 Salvador R. G. Balestra
_symmetry_space_group_name_H-M     'P 1             '
_symmetry_Int_Tables_number        1

loop_
_symmetry_equiv_pos_site_id
_symmetry_equiv_pos_as_xyz
_cell_length_a                       17.2338
_cell_length_b                        7.6322
_cell_length_c                       10.1251
_cell_angle_alpha                   90.0020
_cell_angle_beta                    90.6329
_cell_angle_gamma                   90.0029

loop_
_atom_site_label
_atom_site_type_symbol
_atom_site_fract_x
_atom_site_fract_y
_atom_site_fract_z
_atom_site_charge
  Ge     Ge        0.052090000000021    0.000000000000000    0.372269999999958  0.0000
  Si     Si        0.452507634213322    0.000541848430280    0.384476303722784  0.0000
  Si     Si        0.946832788409570    0.999961850616960    0.628820956806611  0.0000
  Si     Si        0.549831112345651    0.000358250863559    0.647462955526996  0.0000
  Si     Si        0.556072327366861    0.000440538427017    0.137653136035242  0.0000
  Si     Si        0.944236056008867    0.000222023845540    0.111905059310520  0.0000
  Si     Si        0.441259520501189    0.000262096417599    0.896775695504811  0.0000
  Si     Si        0.054396463005121    0.999951725088729    0.873329577764366  0.0000
  Si     Si        0.164842455685148    0.296445298361399    0.293793292828142  0.0000
  Si     Si        0.343431845281185    0.702117931218043    0.286316650385702  0.0000
  Si     Si        0.838297734593613    0.298568055836683    0.728862485963651  0.0000
  Si     Si        0.660017818193887    0.702462972544564    0.725198935550898  0.0000
  Si     Si        0.838660208769198    0.700977342089835    0.728802325996552  0.0000
  Si     Si        0.659692806156270    0.298823667428836    0.725200211716762  0.0000
  Si     Si        0.164404931890953    0.702831344161780    0.293781231935440  0.0000
  Si     Si        0.343884643275461    0.299450595777559    0.286383114135153  0.0000
  Si     Si        0.659085628879166    0.301043098633392    0.033750889147095  0.0000
  Si     Si        0.838362410686969    0.698380766666371    0.038344337938274  0.0000
  Si     Si        0.337527168500871    0.301736765163470    0.977752793096186  0.0000
  Si     Si        0.157492813747306    0.701285177557952    0.987182633267816  0.0000
  Si     Si        0.337010412242527    0.699661251359195    0.977637731704074  0.0000
  Si     Si        0.157984670207708    0.297884379937821    0.987208243989315  0.0000
  Si     Si        0.659582234571752    0.700647185646888    0.033715951830152  0.0000
  Si     Si        0.837824944235320    0.301165952600227    0.038450092909122  0.0000
  O3     O3        0.111756105495893    0.181452556146729    0.386506460870452  0.0000
  O2     O2        0.399757415801103    0.828028967306589    0.368769725506301  0.0000
  O2     O2        0.894662256526629    0.172633136727298    0.648613500169893  0.0000
  O2     O2        0.604407551768199    0.828600477389061    0.640146653539251  0.0000
  O2     O2        0.895160103798830    0.826439875163601    0.648371805604819  0.0000
  O2     O2        0.603842614861599    0.173038333983871    0.640282583595717  0.0000
  O3     O3        0.110979250964294    0.817283677330735    0.386322169052107  0.0000
  O2     O2        0.400467446915582    0.174188178161863    0.368917955435863  0.0000
  O3     O3        0.977444670189653    0.000445279777246    0.481556800426507  0.0000
  O2     O2        0.488279505162061    0.999991713211102    0.529886767941123  0.0000
  O3     O3        0.011021885356070    0.001157380907819    0.217399742116336  0.0000
  O2     O2        0.523822597268004    0.999975221746054    0.284557636655413  0.0000
  O2     O2        0.023203081222247    0.000254607675283    0.723054242766548  0.0000
  O2     O2        0.502125381103924    0.999655485927730    0.781331768624841  0.0000
  O2     O2        0.606819557752329    0.175094975941845    0.120840803630305  0.0000
  O2     O2        0.890937847250379    0.826937919868997    0.126184319664489  0.0000
  O2     O2        0.387829176491523    0.173547718764316    0.887294450754762  0.0000
  O2     O2        0.104741289091479    0.824658383587942    0.895764286083897  0.0000
  O2     O2        0.386907049812288    0.828457470480415    0.887026612888841  0.0000
  O2     O2        0.105719039155186    0.173814257349433    0.895538555604505  0.0000
  O2     O2        0.607934670476586    0.827475029692155    0.121112050037622  0.0000
  O2     O2        0.889994227426160    0.171930088499143    0.126343949538498  0.0000
  O2     O2        0.484899938963151    0.999006958115760    0.036400923419123  0.0000
  O2     O2        0.980461697205171    0.001174059903218    0.966421950022293  0.0000
  O2     O2        0.145841533245929    0.499551365058212    0.317947618417111  0.0000
  O2     O2        0.364749111828502    0.500907491848100    0.319176240066670  0.0000
  O2     O2        0.859821123220152    0.499673637176146    0.695981007746451  0.0000
  O2     O2        0.638558743311451    0.500719963746334    0.694676222541810  0.0000
  O2     O2        0.255337580984414    0.259555637735503    0.325442975665345  0.0000
  O2     O2        0.254805967340101    0.740930894819950    0.325510210437357  0.0000
  O2     O2        0.748979518170647    0.261907144875532    0.687576274788748  0.0000
  O2     O2        0.749388642126111    0.738489823374774    0.687697774250706  0.0000
  O2     O2        0.147021282169753    0.246731310895152    0.140443963408825  0.0000
  O2     O2        0.354135630329933    0.739494475326164    0.131234390486951  0.0000
  O2     O2        0.849298827425881    0.261570808614076    0.883969395766451  0.0000
  O2     O2        0.647806656388485    0.745108767997883    0.879468748056663  0.0000
  O2     O2        0.849970625157340    0.737924184413851    0.883876168339421  0.0000
  O2     O2        0.647406311073175    0.256519791505391    0.879495664904770  0.0000
  O2     O2        0.146492939344481    0.752344012419137    0.140429589326431  0.0000
  O2     O2        0.354812377294905    0.262113959663091    0.131332264246665  0.0000
  O2     O2        0.633958643523554    0.501001321663474    0.061400680765978  0.0000
  O2     O2        0.863469071879533    0.499634511210916    0.071349266502220  0.0000
  O2     O2        0.360872755039120    0.500827630936493    0.943334954798402  0.0000
  O2     O2        0.132823397522637    0.499432582939319    0.963515308314097  0.0000
  O2     O2        0.748361448505917    0.272547329865760    0.075533079731503  0.0000
  O2     O2        0.748950852721707    0.728074752106589    0.075261326357743  0.0000
  O2     O2        0.247011832562813    0.270978387602150    0.946379061206347  0.0000
  O2     O2        0.246430787567410    0.729285170335722    0.946172405490979  0.0000
