data_POSCAR_N0008.vasp
_audit_creation_method             Generated by GULP
_audit_author_name                 Salvador R. G. Balestra
_symmetry_space_group_name_H-M     'P 1             '
_symmetry_Int_Tables_number        1

loop_
_symmetry_equiv_pos_site_id
_symmetry_equiv_pos_as_xyz
_cell_length_a                       17.2664
_cell_length_b                        7.6321
_cell_length_c                       10.1486
_cell_angle_alpha                   93.4876
_cell_angle_beta                    90.4141
_cell_angle_gamma                   90.7880

loop_
_atom_site_label
_atom_site_type_symbol
_atom_site_fract_x
_atom_site_fract_y
_atom_site_fract_z
_atom_site_charge
  Ge     Ge        0.052090000000021    0.000000000000000    0.372269999999958  0.0000
  Ge     Ge        0.542894065577775    0.953314075051222    0.636829422126926  0.0000
  Ge     Ge        0.845292679087787    0.664725638357945    0.704009464239723  0.0000
  Ge     Ge        0.355116307448855    0.322009259644807    0.289780425865774  0.0000
  Ge     Ge        0.651387793677955    0.337950699848432    0.040923971792137  0.0000
  Ge     Ge        0.348894264636894    0.309507401633783    0.965581791430769  0.0000
  Ge     Ge        0.142579871026723    0.668577908736210    0.987688504389181  0.0000
  Ge     Ge        0.834816028963403    0.329287917929523    0.053086021819821  0.0000
  Si     Si        0.452388463844150    0.009003962187449    0.369781593631977  0.0000
  Si     Si        0.947473598290683    0.971216113727792    0.625051929690352  0.0000
  Si     Si        0.559815745972815    0.021636068887383    0.132438794022406  0.0000
  Si     Si        0.940693614909280    0.031688322451215    0.118524439682156  0.0000
  Si     Si        0.441203078670504    0.981725218211999    0.895643014564016  0.0000
  Si     Si        0.048423547580498    0.974917760821883    0.879169536486857  0.0000
  Si     Si        0.173006995440772    0.285004869031233    0.292986862674705  0.0000
  Si     Si        0.330879360203821    0.715502650226083    0.278436908757100  0.0000
  Si     Si        0.829860606192409    0.257086855072219    0.735821555889606  0.0000
  Si     Si        0.662024039015277    0.678706893464109    0.702381146181392  0.0000
  Si     Si        0.653045788893283    0.273069751989943    0.729341114861681  0.0000
  Si     Si        0.156947170024877    0.692338958204493    0.298531048465475  0.0000
  Si     Si        0.843473288687932    0.718257240710911    0.012911594715696  0.0000
  Si     Si        0.320077925586253    0.695363308515437    0.964101397051863  0.0000
  Si     Si        0.165532159539536    0.261852039814956    0.985060391564539  0.0000
  Si     Si        0.660859284624050    0.731846731595280    0.004138442712574  0.0000
  O3     O3        0.119215978801179    0.169789298171199    0.381448749772326  0.0000
  O2     O2        0.380883020519478    0.891058472571746    0.307488353333276  0.0000
  O2     O2        0.877945300916304    0.099867076774430    0.667848835043207  0.0000
  O3     O3        0.607689547330384    0.783954401062600    0.608875254150083  0.0000
  O3     O3        0.909525970162381    0.777011893338927    0.609583470222982  0.0000
  O3     O3        0.592434182590013    0.151305168889535    0.646067204001685  0.0000
  O3     O3        0.099465717554679    0.804659794602058    0.391491450606621  0.0000
  O3     O3        0.421876112388458    0.206267589638110    0.376068375346464  0.0000
  O3     O3        0.981417763823410    0.028223444253028    0.488888309028579  0.0000
  O3     O3        0.475635551168132    0.949895949684141    0.511080611346409  0.0000
  O3     O3        0.005501915144651    0.996126975095629    0.222285414574169  0.0000
  O2     O2        0.528031587030653    0.985159276054576    0.276929207192796  0.0000
  O2     O2        0.018672462893958    0.982151273479602    0.729341918719410  0.0000
  O3     O3        0.488309363792099    0.908002492580389    0.772095447459255  0.0000
  O3     O3        0.586679980298781    0.221928298258924    0.132728758570631  0.0000
  O2     O2        0.875781236128024    0.875809020380075    0.110327711628118  0.0000
  O3     O3        0.411229242162843    0.175705463442305    0.873816666430009  0.0000
  O3     O3        0.072105041176681    0.777666938077338    0.904898722895469  0.0000
  O2     O2        0.363894115422415    0.867970320928084    0.921650185269380  0.0000
  O2     O2        0.122915305103309    0.103306621622766    0.900544732711331  0.0000
  O2     O2        0.633480381393547    0.897272922305152    0.097076724767964  0.0000
  O3     O3        0.894914583260644    0.209858282450909    0.148836186710356  0.0000
  O2     O2        0.493214143520960    0.971811606640302    0.026226694304938  0.0000
  O2     O2        0.980590224730897    0.044175110146448    0.975714349151999  0.0000
  O2     O2        0.143116405343318    0.485032668547015    0.307722272049695  0.0000
  O3     O3        0.370891506343363    0.545109856847774    0.330199436837122  0.0000
  O3     O3        0.864514590386120    0.443132723479488    0.696853046244736  0.0000
  O2     O2        0.635579945135725    0.476211237915469    0.706429155480942  0.0000
  O3     O3        0.261466417929708    0.275493205724572    0.337623905050019  0.0000
  O2     O2        0.245655936469064    0.743817677891834    0.341283817815507  0.0000
  O2     O2        0.740997388319803    0.234112533213325    0.683148368607515  0.0000
  O3     O3        0.750258847251977    0.691665307002135    0.656885307476483  0.0000
  O2     O2        0.167473667577680    0.215803296932473    0.139071314526658  0.0000
  O2     O2        0.315365208351677    0.670072197499289    0.122424712417124  0.0000
  O3     O3        0.827312715846644    0.245044857951142    0.891872471930824  0.0000
  O2     O2        0.651472129054857    0.773158009555297    0.850182396351995  0.0000
  O3     O3        0.862261698024873    0.753044553630296    0.862991721698496  0.0000
  O3     O3        0.644185156203604    0.239742436648998    0.882791807595500  0.0000
  O3     O3        0.139593655134331    0.746713904194504    0.150431871038608  0.0000
  O1     O1        0.370712693734927    0.271887996464389    0.125930674198239  0.0000
  O3     O3        0.618640517753123    0.552436644154310    0.038206423009336  0.0000
  O3     O3        0.877337420953882    0.535862823046614    0.054960694664610  0.0000
  O3     O3        0.363760144112476    0.520179638172787    0.913784383322330  0.0000
  O3     O3        0.122721996405755    0.445339743612347    0.971459161806689  0.0000
  O1     O1        0.741601620823921    0.325827782132686    0.109322137899174  0.0000
  O2     O2        0.751019679081922    0.691734037150461    0.029264858579524  0.0000
  O3     O3        0.251746148132378    0.272803997419451    0.932333463909597  0.0000
  O3     O3        0.232033202004021    0.706243239611922    0.917084056143850  0.0000
