data_POSCAR_N0009.vasp
_audit_creation_method             Generated by GULP
_audit_author_name                 Salvador R. G. Balestra
_symmetry_space_group_name_H-M     'P 1             '
_symmetry_Int_Tables_number        1

loop_
_symmetry_equiv_pos_site_id
_symmetry_equiv_pos_as_xyz
_cell_length_a                       17.3282
_cell_length_b                        7.6961
_cell_length_c                       10.1602
_cell_angle_alpha                   90.7978
_cell_angle_beta                    90.3835
_cell_angle_gamma                   87.6693

loop_
_atom_site_label
_atom_site_type_symbol
_atom_site_fract_x
_atom_site_fract_y
_atom_site_fract_z
_atom_site_charge
  Ge     Ge        0.447909999999979    0.000000000000000    0.372269999999958  0.0000
  Ge     Ge        0.941850470091931    0.991433623041809    0.610120280291794  0.0000
  Ge     Ge        0.541823397159785    0.036891916980359    0.647400184263327  0.0000
  Ge     Ge        0.145777504954696    0.341731634833109    0.271272981684142  0.0000
  Ge     Ge        0.841539665955986    0.684476001884578    0.700499510667823  0.0000
  Ge     Ge        0.164379196560279    0.757787038582325    0.287251882560956  0.0000
  Ge     Ge        0.646845009854853    0.371311992049185    0.039053942922303  0.0000
  Ge     Ge        0.148836668132170    0.360235479899443    0.952959736208227  0.0000
  Ge     Ge        0.831341958587387    0.324380989569629    0.038924481120248  0.0000
  Si     Si        0.042988997688923    0.045354428504551    0.356666344059280  0.0000
  Si     Si        0.557959342102945    0.059870269578235    0.140825212221678  0.0000
  Si     Si        0.945676831103418    0.022452970219820    0.100317938933594  0.0000
  Si     Si        0.441732853941438    0.016621402653892    0.910649588480382  0.0000
  Si     Si        0.053269981694163    0.055314967831973    0.854505575104278  0.0000
  Si     Si        0.344144473929882    0.696326146338825    0.286516719999798  0.0000
  Si     Si        0.822989580261250    0.282027630242379    0.727605311748616  0.0000
  Si     Si        0.660906870513476    0.737624437611482    0.704244161060232  0.0000
  Si     Si        0.645160139941583    0.342583667748253    0.726223637140645  0.0000
  Si     Si        0.324060858502977    0.301661735655061    0.267415765480620  0.0000
  Si     Si        0.844921556070574    0.722767115443408    0.009727575982233  0.0000
  Si     Si        0.326294209950429    0.325423535999132    0.956092829306593  0.0000
  Si     Si        0.163475594505188    0.766542618171274    0.975439907266885  0.0000
  Si     Si        0.340367897840153    0.713004305468418    0.977160604686510  0.0000
  Si     Si        0.665470140064611    0.769085457063336    0.011058418068928  0.0000
  O3     O3        0.079249127466598    0.232820141881484    0.360557249077979  0.0000
  O3     O3        0.410497306809725    0.795338572433252    0.361403264527962  0.0000
  O3     O3        0.863569864777451    0.128584794573081    0.644877450213285  0.0000
  O3     O3        0.608123257052259    0.865770206568765    0.617814175195281  0.0000
  O1     O1        0.907078483411291    0.786146233966070    0.607716488422922  0.0000
  O3     O3        0.588167116202198    0.231036749660260    0.639752346849888  0.0000
  O3     O3        0.111738354808578    0.903226336838358    0.384476955657763  0.0000
  O3     O3        0.378761271129026    0.150549814755030    0.321737895657208  0.0000
  O3     O3        0.972687735820366    0.038004054527853    0.454714166921746  0.0000
  O1     O1        0.469515407331169    0.036522726901048    0.534402388566219  0.0000
  O2     O2        0.011444694801948    0.997550587668922    0.209920659072758  0.0000
  O3     O3        0.533861250996554    0.016203320489423    0.287738058598100  0.0000
  O3     O3        0.020536610771549    0.013818695550218    0.711640125251265  0.0000
  O3     O3        0.506616011667449    0.008831018584068    0.803485329860881  0.0000
  O3     O3        0.584088370376207    0.256611314083811    0.132964974507094  0.0000
  O2     O2        0.895266026125785    0.850929450159465    0.097963663512850  0.0000
  O2     O2        0.382961048435269    0.182001729161399    0.887536848222103  0.0000
  O2     O2        0.121435163295465    0.913645340328352    0.887424406005905  0.0000
  O2     O2        0.395457983116879    0.839191075405962    0.901007657429107  0.0000
  O3     O3        0.087015962591727    0.246116153661188    0.853432518840035  0.0000
  O2     O2        0.628938299202508    0.933957402437741    0.090551819746549  0.0000
  O3     O3        0.890466182375218    0.189310491485206    0.132643161026496  0.0000
  O2     O2        0.480174091033157    0.033077589660066    0.055078607515544  0.0000
  O2     O2        0.983508671511959    0.048988853575572    0.958032669862403  0.0000
  O1     O1        0.126314341587225    0.558263009345296    0.297362312511514  0.0000
  O2     O2        0.358958869672820    0.488872482668031    0.303035830856366  0.0000
  O3     O3        0.862511710600948    0.463745000530100    0.700617853729131  0.0000
  O2     O2        0.625653727034204    0.546501307549510    0.703203424278575  0.0000
  O3     O3        0.239110830483289    0.290633437943953    0.326179546426180  0.0000
  O3     O3        0.259661543611018    0.749700542691779    0.340486598200413  0.0000
  O2     O2        0.733482082537000    0.300929518042254    0.682947934928540  0.0000
  O3     O3        0.747341285905036    0.726805857125417    0.649486823765933  0.0000
  O1     O1        0.136418092943349    0.286268266108181    0.108430580743741  0.0000
  O2     O2        0.346711599264296    0.748310041773044    0.132812920574568  0.0000
  O3     O3        0.826952658094193    0.239514345770297    0.881109615030610  0.0000
  O2     O2        0.661727423588141    0.808802073545767    0.855595122533331  0.0000
  O3     O3        0.853470570119378    0.768655606873081    0.858137838056135  0.0000
  O3     O3        0.636551504670878    0.297697112501065    0.879098665202364  0.0000
  O3     O3        0.161821057130123    0.826428364823454    0.126006021328347  0.0000
  O2     O2        0.312170318799180    0.287229033226508    0.109676036777406  0.0000
  O3     O3        0.623543436250853    0.593642323738711    0.044941025958262  0.0000
  O3     O3        0.872216569842405    0.525640233531599    0.036647611374964  0.0000
  O2     O2        0.365270092350729    0.512814256870651    0.941305704075820  0.0000
  O3     O3        0.125223935335328    0.581693265554335    0.954123443972836  0.0000
  O1     O1        0.739151493290904    0.337744865845659    0.097152033271710  0.0000
  O2     O2        0.755003261591387    0.742309644891337    0.052987219592036  0.0000
  O3     O3        0.242033750424874    0.327977980043100    0.892507306873068  0.0000
  O2     O2        0.252631654146496    0.747529332191825    0.928794587854059  0.0000
