data_POSCAR_N0007.vasp
_audit_creation_method             Generated by GULP
_audit_author_name                 Salvador R. G. Balestra
_symmetry_space_group_name_H-M     'P 1             '
_symmetry_Int_Tables_number        1

loop_
_symmetry_equiv_pos_site_id
_symmetry_equiv_pos_as_xyz
_cell_length_a                       17.3256
_cell_length_b                        7.6835
_cell_length_c                       10.2657
_cell_angle_alpha                   90.1905
_cell_angle_beta                    89.9193
_cell_angle_gamma                   89.4903

loop_
_atom_site_label
_atom_site_type_symbol
_atom_site_fract_x
_atom_site_fract_y
_atom_site_fract_z
_atom_site_charge
  Ge     Ge        0.052090000000021    0.000000000000000    0.372269999999958  0.0000
  Ge     Ge        0.449209889948218    0.972563912858096    0.358730049288379  0.0000
  Ge     Ge        0.550230272735524    0.977002739650162    0.630104443607309  0.0000
  Ge     Ge        0.834746161177363    0.697125425564482    0.703935134998305  0.0000
  Ge     Ge        0.828434284494428    0.695677256299748    0.020630710734913  0.0000
  Ge     Ge        0.344850902441697    0.668209310632430    0.954726645753200  0.0000
  Ge     Ge        0.144404829260768    0.302370860149476    0.963513534878301  0.0000
  Si     Si        0.951576423991476    0.980029384849887    0.631464018134073  0.0000
  Si     Si        0.554636767848938    0.973524871159292    0.111037458118983  0.0000
  Si     Si        0.935878729181943    0.984187354137873    0.132385910597160  0.0000
  Si     Si        0.441929245676495    0.984039234921983    0.881357738547099  0.0000
  Si     Si        0.045497629477607    0.985970595263940    0.889944317550543  0.0000
  Si     Si        0.153726105314968    0.302274098566148    0.270986394247339  0.0000
  Si     Si        0.345402838888717    0.669001205851150    0.262973176448591  0.0000
  Si     Si        0.848556119581715    0.287556452122719    0.711306310485849  0.0000
  Si     Si        0.655794804813961    0.659683023900894    0.697685454436040  0.0000
  Si     Si        0.669718326641917    0.260378667689115    0.699354142542056  0.0000
  Si     Si        0.168845530772730    0.704574208633569    0.265383625098669  0.0000
  Si     Si        0.329555406874853    0.267558408615514    0.256231318418823  0.0000
  Si     Si        0.662429800665721    0.262614526686093    0.002051775824711  0.0000
  Si     Si        0.324955107071501    0.267793740134612    0.950864312224904  0.0000
  Si     Si        0.163547645387197    0.704452759742560    0.961276084961650  0.0000
  Si     Si        0.649944414289983    0.658834438346210    0.005633219418316  0.0000
  Si     Si        0.841677246971685    0.290063731134990    0.013674917670481  0.0000
  O3     O3        0.097150626616514    0.198546363955068    0.363776474530596  0.0000
  O3     O3        0.404705438985142    0.772737559161132    0.350964139745234  0.0000
  O2     O2        0.905301922924221    0.164210740810191    0.627986034098561  0.0000
  O3     O3        0.591523634961064    0.771188054683237    0.624741563606084  0.0000
  O3     O3        0.890846549862399    0.827418677855762    0.607142365832909  0.0000
  O3     O3        0.623834716491039    0.127266153710682    0.611538908159296  0.0000
  O3     O3        0.117842276057692    0.833362509222103    0.350036022420707  0.0000
  O3     O3        0.383204223935689    0.137415565270623    0.333451511041908  0.0000
  O3     O3        0.019877156086838    0.980016813049410    0.529687816798914  0.0000
  O1     O1        0.481849114942639    0.998190834860474    0.514040060778246  0.0000
  O3     O3        0.972346117806379    0.989369939112667    0.274004643470777  0.0000
  O3     O3        0.529975939943490    0.980241427727158    0.259916799077173  0.0000
  O2     O2        0.987601265559718    0.943927799475366    0.773953213314342  0.0000
  O3     O3        0.506769182605080    0.021026385802861    0.777588664652643  0.0000
  O2     O2        0.618713265263483    0.121088543674050    0.087987256835747  0.0000
  O3     O3        0.875589522278159    0.828727889946503    0.127566520566685  0.0000
  O2     O2        0.370382000857282    0.119491636530454    0.870285128289505  0.0000
  O2     O2        0.118172516364720    0.853391390534611    0.882650980528654  0.0000
  O3     O3        0.406975020705330    0.792394117470893    0.863593905014411  0.0000
  O3     O3        0.077747387894997    0.180146640187036    0.879880186259302  0.0000
  O2     O2        0.586346758117906    0.780764675207193    0.074844817841357  0.0000
  O2     O2        0.892564909821858    0.167024794031329    0.105304586072497  0.0000
  O2     O2        0.478648282872273    0.010372953158593    0.025258926337949  0.0000
  O2     O2        0.002984035301756    0.950104516866274    0.026551240890609  0.0000
  O2     O2        0.137242995118220    0.508663893493608    0.281253208251045  0.0000
  O2     O2        0.362178382810451    0.462720058688871    0.272355075890520  0.0000
  O3     O3        0.869477463053157    0.485839807932042    0.690163711556791  0.0000
  O2     O2        0.638638450143825    0.455932608871116    0.674464455784647  0.0000
  O2     O2        0.242252228942591    0.260365504428422    0.311438198380027  0.0000
  O2     O2        0.257977220005885    0.711490663434472    0.310526035995415  0.0000
  O2     O2        0.760609735878578    0.252424093235399    0.666546208397148  0.0000
  O3     O3        0.740703700913706    0.705178314418127    0.647744976892185  0.0000
  O3     O3        0.137742450103367    0.238957234253807    0.124130523967342  0.0000
  O3     O3        0.356498383070583    0.730450874335672    0.114880110137614  0.0000
  O2     O2        0.857187991027582    0.237414153299069    0.863513887566869  0.0000
  O2     O2        0.654145137069267    0.703407918645181    0.852366723650157  0.0000
  O1     O1        0.837498980760065    0.763098523927053    0.863444338649591  0.0000
  O2     O2        0.656633707120761    0.208843687300915    0.850812530177350  0.0000
  O2     O2        0.165621495897071    0.757287573393915    0.113960805889273  0.0000
  O2     O2        0.325117770521395    0.219879233554722    0.104014357510971  0.0000
  O2     O2        0.626320032064689    0.455938599255978    0.024888389354599  0.0000
  O3     O3        0.865543024870687    0.486693288099829    0.036498414967123  0.0000
  O3     O3        0.366172850686729    0.451251895991633    0.929498910041689  0.0000
  O3     O3        0.122034810878682    0.519986369083830    0.944652162203034  0.0000
  O2     O2        0.751362506399829    0.264243380097435    0.046686444868118  0.0000
  O3     O3        0.732489367749074    0.693256707184470    0.067236630561978  0.0000
  O3     O3        0.237043930839693    0.273077414631022    0.904332970299493  0.0000
  O3     O3        0.249916950849651    0.695620163313401    0.907763830944100  0.0000
