data_c00003.vasp
_audit_creation_method             Generated by GULP
_audit_author_name                 Salvador R. G. Balestra
_symmetry_space_group_name_H-M     'P 1             '
_symmetry_Int_Tables_number        1

loop_
_symmetry_equiv_pos_site_id
_symmetry_equiv_pos_as_xyz
_cell_length_a                       10.2331
_cell_length_b                       15.1365
_cell_length_c                        8.9065
_cell_angle_alpha                   90.2099
_cell_angle_beta                   105.2539
_cell_angle_gamma                   89.8959

loop_
_atom_site_label
_atom_site_type_symbol
_atom_site_fract_x
_atom_site_fract_y
_atom_site_fract_z
_atom_site_charge
  Ge     Ge        0.403900000000021    0.397900000000050    0.686299999999960  0.0000
  Si     Si        0.369308854370573    0.239707613505933    0.892972521098911  0.0000
  Si     Si        0.666330051592453    0.244373809652509    0.097640462394730  0.0000
  Si     Si        0.665052732270657    0.753239054657011    0.099355320596927  0.0000
  Si     Si        0.368776769992640    0.759901142147469    0.889705600955000  0.0000
  Si     Si        0.868723285235667    0.742013904185229    0.888521138237269  0.0000
  Si     Si        0.164521560299319    0.744652201991661    0.098932104446608  0.0000
  Si     Si        0.165909270508121    0.251448430470659    0.098704490746065  0.0000
  Si     Si        0.870589563582870    0.257521731722941    0.888548582672123  0.0000
  Si     Si        0.305983366653573    0.398305444967737    0.322672419535699  0.0000
  Si     Si        0.708237820507075    0.396920142132967    0.664100415175920  0.0000
  Si     Si        0.705414376994032    0.602146592295998    0.661877839568343  0.0000
  Si     Si        0.309188063959311    0.600244037889328    0.322133053038382  0.0000
  Si     Si        0.807492404278171    0.897515773795997    0.326262568985056  0.0000
  Si     Si        0.205037812792957    0.898951787638185    0.665214359728780  0.0000
  Si     Si        0.203351637797269    0.102634437649320    0.663551882098700  0.0000
  Si     Si        0.805597721535110    0.099319760006452    0.323901841146532  0.0000
  Si     Si        0.609735642229189    0.397147948960737    0.308175043849675  0.0000
  Si     Si        0.609424712057225    0.600144281921618    0.304683612886445  0.0000
  Si     Si        0.406648701713261    0.604208635196540    0.682439262023390  0.0000
  Si     Si        0.905455868938112    0.898422958214871    0.684711683665431  0.0000
  Si     Si        0.108925344223354    0.897301592942791    0.308281629568112  0.0000
  Si     Si        0.106793078519497    0.100093371523965    0.307145423237432  0.0000
  Si     Si        0.903633735610894    0.101457790210846    0.682733667799902  0.0000
  O2     O2        0.528068054363765    0.224187148507372    0.969109265788178  0.0000
  O2     O2        0.524575577784220    0.775456186840548    0.977111191832389  0.0000
  O2     O2        0.024115324505082    0.723680212130780    0.974998401297574  0.0000
  O2     O2        0.028083994978622    0.271632530221778    0.970047930434998  0.0000
  O2     O2        0.321520573471812    0.163478836167698    0.764046148717736  0.0000
  O2     O2        0.694384594133706    0.164198918699603    0.220373329288831  0.0000
  O2     O2        0.695883101834101    0.831920500455727    0.225671991102254  0.0000
  O2     O2        0.323282823193613    0.841437547203291    0.773171843571180  0.0000
  O2     O2        0.822808554198412    0.662921286176507    0.765256410640659  0.0000
  O2     O2        0.195579258156710    0.664924277205942    0.222320025443942  0.0000
  O2     O2        0.195456873769243    0.334950891979482    0.214037977150889  0.0000
  O2     O2        0.828228542764107    0.338340433915199    0.769240638452276  0.0000
  O3     O3        0.343448670144897    0.334029463822771    0.811047194349202  0.0000
  O2     O2        0.657302475820072    0.335799028041287    0.186541204047286  0.0000
  O2     O2        0.661137634437863    0.660467920442934    0.185397840479033  0.0000
  O2     O2        0.348129894936951    0.670225233817918    0.789303312607464  0.0000
  O2     O2        0.850914499772029    0.835606243945923    0.798990024635454  0.0000
  O2     O2        0.159821631607331    0.836253535273006    0.188968222663962  0.0000
  O2     O2        0.157270756865495    0.161710776028755    0.190060635888863  0.0000
  O2     O2        0.846322053697358    0.164742369710255    0.795004402549204  0.0000
  O2     O2        0.288905414146563    0.235300984418804    0.023338045144784  0.0000
  O2     O2        0.787103607011344    0.255485357605426    0.016629218416685  0.0000
  O2     O2        0.782429469256699    0.745180072965437    0.013074720728947  0.0000
  O2     O2        0.282650705647420    0.753532346463764    0.014143074183790  0.0000
  O2     O2        0.455237659588863    0.375979425829810    0.304363132675399  0.0000
  O3     O3        0.568710000459021    0.368106475172526    0.697310445084407  0.0000
  O2     O2        0.562745990094675    0.628325616926632    0.694024918774334  0.0000
  O2     O2        0.453416068551576    0.623017293899427    0.291248682345137  0.0000
  O2     O2        0.951244984643656    0.878757012541979    0.291206729704432  0.0000
  O2     O2        0.062836803745791    0.876758913253655    0.702066623531113  0.0000
  O2     O2        0.061001552547893    0.124209583360109    0.701292637307962  0.0000
  O2     O2        0.948878389361484    0.117900734136302    0.288551286258859  0.0000
  O3     O3        0.304389343125137    0.384365014074002    0.499062724354095  0.0000
  O2     O2        0.702388896872149    0.381198780106408    0.482634558609687  0.0000
  O2     O2        0.698536300019185    0.617202692953069    0.480711652262775  0.0000
  O2     O2        0.318047302596203    0.612220325802412    0.504076036602513  0.0000
  O2     O2        0.819278152865555    0.881451159801623    0.507914666292510  0.0000
  O2     O2        0.194483845726471    0.877855025165117    0.484738104166599  0.0000
  O2     O2        0.191458851732003    0.121695790779165    0.482804780190075  0.0000
  O2     O2        0.817603409496185    0.117006316376582    0.505454817050653  0.0000
  O2     O2        0.268255936076268    0.499586230975983    0.272345215504366  0.0000
  O2     O2        0.737469226977185    0.499985986627355    0.706287247758739  0.0000
  O2     O2        0.761216537859905    0.998150425394489    0.281918334654433  0.0000
  O2     O2        0.242507138664429    0.001025679033731    0.702072617681412  0.0000
  O3     O3        0.396927443658194    0.506329749227623    0.742595466633352  0.0000
  O2     O2        0.623851466210634    0.498267751342631    0.258046897533039  0.0000
  O2     O2        0.888571342205816    0.000135573203112    0.731419472953079  0.0000
  O2     O2        0.130097034649406    0.998647065412390    0.265401763502872  0.0000
