data_c00002.vasp
_audit_creation_method             Generated by GULP
_audit_author_name                 Salvador R. G. Balestra
_symmetry_space_group_name_H-M     'P 1             '
_symmetry_Int_Tables_number        1

loop_
_symmetry_equiv_pos_site_id
_symmetry_equiv_pos_as_xyz
_cell_length_a                       10.2634
_cell_length_b                       15.1354
_cell_length_c                        8.8907
_cell_angle_alpha                   90.0729
_cell_angle_beta                   105.1768
_cell_angle_gamma                   90.0619

loop_
_atom_site_label
_atom_site_type_symbol
_atom_site_fract_x
_atom_site_fract_y
_atom_site_fract_z
_atom_site_charge
  Ge     Ge        0.306699999999978    0.397900000000050    0.331699999999955  0.0000
  Si     Si        0.370277530249119    0.244853121058562    0.901325016163726  0.0000
  Si     Si        0.666006611511440    0.242188916391581    0.106785180345295  0.0000
  Si     Si        0.669916202124276    0.752477475430308    0.105993639479612  0.0000
  Si     Si        0.374699496684447    0.760089987961982    0.896255997717325  0.0000
  Si     Si        0.875039729483729    0.740985254273274    0.896458385321717  0.0000
  Si     Si        0.170051409767118    0.747457923220814    0.106263429663459  0.0000
  Si     Si        0.159662156691863    0.253506712204228    0.102678981933281  0.0000
  Si     Si        0.865535280618049    0.254438642481995    0.891467031107840  0.0000
  Si     Si        0.707346163042693    0.398211061471497    0.669218691231159  0.0000
  Si     Si        0.712154268549968    0.601425284320733    0.669590455193910  0.0000
  Si     Si        0.314247145055285    0.603549549901998    0.330815984927043  0.0000
  Si     Si        0.815351419123057    0.895932862145245    0.332823883004471  0.0000
  Si     Si        0.212722524126390    0.900617480691091    0.671893194905697  0.0000
  Si     Si        0.206320804149671    0.104968331576933    0.670191364324179  0.0000
  Si     Si        0.810503226755613    0.097939556847078    0.329297494501676  0.0000
  Si     Si        0.408855917577281    0.401287386266503    0.696253253089079  0.0000
  Si     Si        0.611647963759557    0.395489155146981    0.312335366298733  0.0000
  Si     Si        0.613019124517529    0.599788630855232    0.311584582296270  0.0000
  Si     Si        0.414392050453223    0.603308114380631    0.691638524509738  0.0000
  Si     Si        0.913573132157300    0.897457778626005    0.692063963732390  0.0000
  Si     Si        0.114891610289743    0.898536603321578    0.314774214013838  0.0000
  Si     Si        0.110192312711933    0.101844304633472    0.312779670357862  0.0000
  Si     Si        0.906962969778383    0.099493494702533    0.688571808486926  0.0000
  O2     O2        0.523443533312047    0.221392389913259    0.987524532531408  0.0000
  O2     O2        0.529237208492388    0.776548146006272    0.986246640263665  0.0000
  O2     O2        0.029133421148491    0.722838403548917    0.986512995098305  0.0000
  O2     O2        0.021891099580103    0.270266116726139    0.972777111415398  0.0000
  O2     O2        0.318734948142212    0.168619283612634    0.773701341148589  0.0000
  O2     O2        0.696354828760049    0.161806974123918    0.229471008242850  0.0000
  O2     O2        0.703372736559719    0.830236428242564    0.233835704277165  0.0000
  O2     O2        0.329963896568566    0.841332066331669    0.777796709136249  0.0000
  O2     O2        0.829616772334937    0.662333331384205    0.772056143955526  0.0000
  O2     O2        0.203906398756906    0.671971702430104    0.237294782907646  0.0000
  O3     O3        0.180180540960743    0.331385724516211    0.227137609300357  0.0000
  O2     O2        0.819654948222337    0.335583064891866    0.774128212714859  0.0000
  O2     O2        0.361859864127737    0.340160863945764    0.819290075631540  0.0000
  O2     O2        0.668038632938737    0.334847190599549    0.195836508333920  0.0000
  O2     O2        0.665653283524889    0.659248558094248    0.191194904122876  0.0000
  O2     O2        0.357491049974628    0.668426358249714    0.800927080680616  0.0000
  O2     O2        0.859675973157966    0.834273412536028    0.806425452868653  0.0000
  O2     O2        0.165599816031544    0.840800892902485    0.191099307279965  0.0000
  O2     O2        0.160576921096338    0.160371332246145    0.190262658700438  0.0000
  O2     O2        0.845509786204492    0.162241574147753    0.797293076695351  0.0000
  O2     O2        0.283736231209943    0.251059817852538    0.025516717608242  0.0000
  O2     O2        0.781468140773862    0.249279872429679    0.017811749662046  0.0000
  O2     O2        0.785467290979960    0.744305607351390    0.017516753129045  0.0000
  O2     O2        0.285565244750181    0.754229369402847    0.017542462479770  0.0000
  O3     O3        0.459091465998872    0.368599295283374    0.299530711854730  0.0000
  O2     O2        0.561576689384884    0.376434526171962    0.695453575347548  0.0000
  O2     O2        0.570116499119453    0.626902888595725    0.703759938717073  0.0000
  O2     O2        0.459009373048495    0.624947506629502    0.300218222796615  0.0000
  O2     O2        0.958605975556170    0.876600754424943    0.298001876787699  0.0000
  O2     O2        0.071161906789919    0.878105656528942    0.709642967860947  0.0000
  O2     O2        0.063589334839439    0.123303770921015    0.707690100190476  0.0000
  O2     O2        0.952705682560657    0.120288641496229    0.293900480723884  0.0000
  O3     O3        0.312451494885090    0.386909073745230    0.526247701907414  0.0000
  O2     O2        0.702112638012800    0.381692429352153    0.488871136386106  0.0000
  O2     O2        0.703454080584687    0.616068285855842    0.487487655672471  0.0000
  O2     O2        0.325427181369586    0.612704892949341    0.514543899392338  0.0000
  O2     O2        0.827798478217086    0.880530900071594    0.515111455459885  0.0000
  O2     O2        0.201520337501377    0.879267171131819    0.491047005555825  0.0000
  O2     O2        0.194364301962332    0.125011266573342    0.488824922741324  0.0000
  O2     O2        0.821927801088085    0.113630068445323    0.511055167320046  0.0000
  O3     O3        0.269136851379606    0.505751754173369    0.275590744191466  0.0000
  O2     O2        0.747316458689302    0.499582050214475    0.714629837967485  0.0000
  O2     O2        0.770091274760650    0.996347600146181    0.285873631396943  0.0000
  O2     O2        0.249372252787876    0.003368643099414    0.707471447415355  0.0000
  O2     O2        0.402669174715709    0.503240177383577    0.748841244827313  0.0000
  O2     O2        0.621361352941628    0.497635867783670    0.263939637395773  0.0000
  O2     O2        0.894149466422989    0.998428165133613    0.739835919709133  0.0000
  O2     O2        0.133153338814092    0.000363707206939    0.273950461523053  0.0000
