data_image0
_chemical_formula_structural       GeSi23O48
_chemical_formula_sum              "Ge1 Si23 O48"
_cell_length_a       10.659673484250847
_cell_length_b       15.576959894002425
_cell_length_c       9.19853912121073
_cell_angle_alpha    90.0493802776816
_cell_angle_beta     105.67472534486488
_cell_angle_gamma    89.88447142941186

_space_group_name_H-M_alt    "P 1"
_space_group_IT_number       1

loop_
  _space_group_symop_operation_xyz
  'x, y, z'

loop_
  _atom_site_type_symbol
  _atom_site_label
  _atom_site_symmetry_multiplicity
  _atom_site_fract_x
  _atom_site_fract_y
  _atom_site_fract_z
  _atom_site_occupancy
  Ge  Ge1       1.0  0.3822392590798104  0.37975144349949536  0.6834423962246955  1.0000
  Si  Si1       1.0  0.34764593096628665  0.2231717753627749  0.8927599914151922  1.0000
  Si  Si2       1.0  0.6449853068694049  0.2301330157970214  0.0964936864565105  1.0000
  Si  Si3       1.0  0.6434564843826085  0.7371367746086306  0.0988546076900625  1.0000
  Si  Si4       1.0  0.3464525673388155  0.7413934492566805  0.8895857632417494  1.0000
  Si  Si5       1.0  0.8460121193352652  0.726746605408117  0.8880903764975725  1.0000
  Si  Si6       1.0  0.14269425667408622  0.7298739786072113  0.09845984944347239  1.0000
  Si  Si7       1.0  0.14420908986320835  0.2349094476601527  0.09791959009835625  1.0000
  Si  Si8       1.0  0.8479226658442122  0.23922007155321273  0.8864035980464968  1.0000
  Si  Si9       1.0  0.2840682027425295  0.38131519065470626  0.31675500437614507  1.0000
  Si  Si10      1.0  0.6847958068958927  0.37994208717932965  0.6638395618690619  1.0000
  Si  Si11      1.0  0.6801032025865954  0.5856589142352542  0.6646730026351285  1.0000
  Si  Si12      1.0  0.2859587415967693  0.5855868363753247  0.3215080577985943  1.0000
  Si  Si13      1.0  0.7844413756918854  0.8819048867810448  0.3225052583085223  1.0000
  Si  Si14      1.0  0.17791538948672653  0.8802363761992653  0.6651984648085749  1.0000
  Si  Si15      1.0  0.17788270696502345  0.0857852107733947  0.6666552620695267  1.0000
  Si  Si16      1.0  0.7845504436091381  0.08502125203307558  0.3221581288386911  1.0000
  Si  Si17      1.0  0.583673368876514  0.38126866788846625  0.30462881290461497  1.0000
  Si  Si18      1.0  0.583474432856868  0.5856788269193727  0.3057321710468889  1.0000
  Si  Si19      1.0  0.38291724781845105  0.5877540389927893  0.6822916915545338  1.0000
  Si  Si20      1.0  0.8816992015119974  0.8808651787186995  0.682621722584054  1.0000
  Si  Si21      1.0  0.08273618026381095  0.8809072049099924  0.3073598705488761  1.0000
  Si  Si22      1.0  0.08283150066485091  0.0850809747173721  0.308947609899657  1.0000
  Si  Si23      1.0  0.8814754065755431  0.08501903666310442  0.6825927599112873  1.0000
  O   O1        1.0  0.5072523850166681  0.20864200156385007  0.9650950745844501  1.0000
  O   O2        1.0  0.5046489775075707  0.7573515342549342  0.9686386962677761  1.0000
  O   O3        1.0  0.004325807534256873  0.7102630722868839  0.9671324115856557  1.0000
  O   O4        1.0  0.0072362905120057185  0.2520699541091786  0.963163250350595  1.0000
  O   O5        1.0  0.3013940383342772  0.14263279882182786  0.7703240803350496  1.0000
  O   O6        1.0  0.6686143888722315  0.14851767757996237  0.21945070319728738  1.0000
  O   O7        1.0  0.6670322199176324  0.8193246238001227  0.22058908849651948  1.0000
  O   O8        1.0  0.3010180196437022  0.8235946735473854  0.7706315413183247  1.0000
  O   O9        1.0  0.800922554898148  0.6447739916833555  0.7682030711020569  1.0000
  O   O10       1.0  0.16698453293867768  0.6474169390834776  0.2197083231682336  1.0000
  O   O11       1.0  0.16544041049337505  0.3215561204211297  0.2097376584244274  1.0000
  O   O12       1.0  0.8076621737996105  0.32139715109747946  0.7656564396639707  1.0000
  O   O13       1.0  0.314687099749565  0.31932441792627964  0.8069384684384157  1.0000
  O   O14       1.0  0.6410500055995716  0.32339338066975076  0.1851731779907821  1.0000
  O   O15       1.0  0.6422156205671642  0.6439046186464757  0.18819007101127522  1.0000
  O   O16       1.0  0.3210511267650426  0.6483808567433055  0.7948904017319811  1.0000
  O   O17       1.0  0.8201423923419972  0.8210460321177677  0.7966293531473854  1.0000
  O   O18       1.0  0.14024289395034442  0.8229431638695054  0.18813904189078587  1.0000
  O   O19       1.0  0.14154395269060033  0.1441035204196456  0.19287393154196786  1.0000
  O   O20       1.0  0.8182903110857118  0.1447017433411978  0.7957822964122948  1.0000
  O   O21       1.0  0.2714801208401602  0.22134644197382808  0.02791526076316616  1.0000
  O   O22       1.0  0.7682222820061233  0.240075089819858  0.018621397351751008  1.0000
  O   O23       1.0  0.766164367823377  0.7286655134052421  0.019977669771979265  1.0000
  O   O24       1.0  0.2662478234623045  0.7384226402638484  0.0210136548911803  1.0000
  O   O25       1.0  0.42451313902149346  0.3612440601806769  0.2746099165991753  1.0000
  O   O26       1.0  0.5510774646153099  0.35452704376039124  0.718793676794457  1.0000
  O   O27       1.0  0.5426695413347271  0.6070634806456003  0.7134451698861696  1.0000
  O   O28       1.0  0.42405875765657663  0.6058807365746001  0.27418655312524653  1.0000
  O   O29       1.0  0.9231187291362837  0.8620375902850397  0.27596266602815095  1.0000
  O   O30       1.0  0.04054103668481038  0.8579597035692954  0.7131377174291074  1.0000
  O   O31       1.0  0.040532749074779176  0.10783253058521469  0.7151532570273961  1.0000
  O   O32       1.0  0.9231467319202986  0.1042379021937444  0.27554837249686814  1.0000
  O   O33       1.0  0.29241051138655233  0.3536444475709045  0.4956597105463577  1.0000
  O   O34       1.0  0.6659919359722403  0.3557584525906461  0.48174915150731173  1.0000
  O   O35       1.0  0.6641653446884112  0.6107796662832554  0.48348375024335327  1.0000
  O   O36       1.0  0.30189196155631953  0.6089163308921488  0.5032808253517994  1.0000
  O   O37       1.0  0.7992578966539424  0.8590763367995973  0.5042335026781849  1.0000
  O   O38       1.0  0.16340613798425843  0.8543206945829096  0.4845042900922934  1.0000
  O   O39       1.0  0.16271742722050545  0.11153824958258313  0.4860499750270371  1.0000
  O   O40       1.0  0.7998836063882955  0.10748036318675146  0.5041462689781164  1.0000
  O   O41       1.0  0.23852857526533347  0.4838060536157669  0.2830420003366927  1.0000
  O   O42       1.0  0.7250075775793429  0.4830619211448023  0.6989727727710889  1.0000
  O   O43       1.0  0.7353804589291846  0.9835139086589939  0.28286958022321906  1.0000
  O   O44       1.0  0.22040235347230538  0.9829151139329848  0.6995746350309487  1.0000
  O   O45       1.0  0.3554312827650769  0.48750334337497536  0.7322468324917608  1.0000
  O   O46       1.0  0.6097499872687651  0.48351816908796624  0.26601097224743364  1.0000
  O   O47       1.0  0.8594925322027791  0.9829794054702896  0.7268462634185219  1.0000
  O   O48       1.0  0.11086130535731605  0.9830618841864888  0.2701243045961764  1.0000
