data_image0
_chemical_formula_structural       GeSi23O48
_chemical_formula_sum              "Ge1 Si23 O48"
_cell_length_a       10.69492689124693
_cell_length_b       15.564318828101383
_cell_length_c       9.18488322779154
_cell_angle_alpha    90.07446829039824
_cell_angle_beta     105.59115645120835
_cell_angle_gamma    89.74050978543026

_space_group_name_H-M_alt    "P 1"
_space_group_IT_number       1

loop_
  _space_group_symop_operation_xyz
  'x, y, z'

loop_
  _atom_site_type_symbol
  _atom_site_label
  _atom_site_symmetry_multiplicity
  _atom_site_fract_x
  _atom_site_fract_y
  _atom_site_fract_z
  _atom_site_occupancy
  Ge  Ge1       1.0  0.3472166407231059  0.2264027943741741  0.8895006814634954  1.0000
  Si  Si1       1.0  0.6476115150835573  0.2310586436443979  0.101613026535454  1.0000
  Si  Si2       1.0  0.6367925813240014  0.7380217569533593  0.09850604368754887  1.0000
  Si  Si3       1.0  0.3407698132907251  0.740231386078455  0.8883908663241591  1.0000
  Si  Si4       1.0  0.8399586685353599  0.7269635450109226  0.8878424144689346  1.0000
  Si  Si5       1.0  0.135681264878259  0.7294587190254809  0.09618210717914562  1.0000
  Si  Si6       1.0  0.1388991125855929  0.23786008305932488  0.10100537526119506  1.0000
  Si  Si7       1.0  0.8471230223652623  0.24117997570289398  0.8914782825351555  1.0000
  Si  Si8       1.0  0.2822942227048904  0.3822499676526243  0.3210189247145371  1.0000
  Si  Si9       1.0  0.6745913074335405  0.3807272989605663  0.6657225997067615  1.0000
  Si  Si10      1.0  0.6748116270140222  0.5863885461523368  0.6640807628004424  1.0000
  Si  Si11      1.0  0.28144720435070114  0.5865396299063863  0.32146197188947373  1.0000
  Si  Si12      1.0  0.7786001361245136  0.8824451137598067  0.3229836981182497  1.0000
  Si  Si13      1.0  0.1721638980118814  0.8781059118630401  0.6618345873046284  1.0000
  Si  Si14      1.0  0.17431903481528857  0.08403408519610163  0.6628339790279553  1.0000
  Si  Si15      1.0  0.7798865224247223  0.08529353528890546  0.3264899670576931  1.0000
  Si  Si16      1.0  0.3796962098118199  0.38332630254445715  0.6813258051437403  1.0000
  Si  Si17      1.0  0.5781955003164995  0.381662030888549  0.30553958028543765  1.0000
  Si  Si18      1.0  0.5778601363867473  0.5863608975488165  0.3052272794453925  1.0000
  Si  Si19      1.0  0.37946964291427226  0.5876355007834183  0.6809646562715033  1.0000
  Si  Si20      1.0  0.8787459955530669  0.8810751290768657  0.6837244315704327  1.0000
  Si  Si21      1.0  0.07496279076139532  0.8809461163190739  0.30372999006701523  1.0000
  Si  Si22      1.0  0.07552973975264067  0.08488212326961155  0.3054522498783647  1.0000
  Si  Si23      1.0  0.8814819804630477  0.08563439477868494  0.6868474039327105  1.0000
  O   O1        1.0  0.5168081308326141  0.20889929127367848  0.9604799143465504  1.0000
  O   O2        1.0  0.4972771415641511  0.7585644078088756  0.9702877467932054  1.0000
  O   O3        1.0  0.9970021122877387  0.7083066696787005  0.9676054569668977  1.0000
  O   O4        1.0  0.005648740344829719  0.25969066865241913  0.9632095744405741  1.0000
  O   O5        1.0  0.30208256545455875  0.13823318459416817  0.7635715951101278  1.0000
  O   O6        1.0  0.6650104609909412  0.15033272377850465  0.2259838893274214  1.0000
  O   O7        1.0  0.6615563729532119  0.8198219720807494  0.22155101100896438  1.0000
  O   O8        1.0  0.29513496122534694  0.8205267503217623  0.764856644087603  1.0000
  O   O9        1.0  0.7953965206103609  0.6454025657121011  0.7668806894369784  1.0000
  O   O10       1.0  0.1621064509618124  0.6476965559070345  0.21912069782727348  1.0000
  O   O11       1.0  0.1623769834619774  0.320697790088394  0.22194598845354302  1.0000
  O   O12       1.0  0.795301546693911  0.3213173552059505  0.7690152290490121  1.0000
  O   O13       1.0  0.3130366894124352  0.3275375234898636  0.796299833552395  1.0000
  O   O14       1.0  0.6387047433226111  0.32470032292410766  0.187308167042266  1.0000
  O   O15       1.0  0.6361064267194917  0.6442809938765174  0.18688360840786655  1.0000
  O   O16       1.0  0.3185722875468824  0.6454816907429131  0.7983893679938595  1.0000
  O   O17       1.0  0.8166813612157421  0.8218441376163231  0.7979463140161306  1.0000
  O   O18       1.0  0.13178603035454364  0.8232402366276117  0.18343050974720465  1.0000
  O   O19       1.0  0.1296290662704823  0.144467253951626  0.18623937305333632  1.0000
  O   O20       1.0  0.8222349498222776  0.14569009196157226  0.8033133452989073  1.0000
  O   O21       1.0  0.27017724774039487  0.22490627647207662  0.03763586742527849  1.0000
  O   O22       1.0  0.7754412344308779  0.2395468872315351  0.03136233559785353  1.0000
  O   O23       1.0  0.7582149511981002  0.7296886486781924  0.017921879921936473  1.0000
  O   O24       1.0  0.2577993350606339  0.7383317572752798  0.017132334886245992  1.0000
  O   O25       1.0  0.4189387999899318  0.36197932589320786  0.27049930736145383  1.0000
  O   O26       1.0  0.5383847069828313  0.3601495563179272  0.7167826028737168  1.0000
  O   O27       1.0  0.5380771113697869  0.608864391593806  0.7129644752757384  1.0000
  O   O28       1.0  0.41884955306119276  0.6065388354138672  0.27322855476381713  1.0000
  O   O29       1.0  0.9155493722745671  0.8637628285698005  0.27257520607737923  1.0000
  O   O30       1.0  0.03667046993140148  0.8567661107137157  0.713589743280595  1.0000
  O   O31       1.0  0.03997136208240607  0.10750408469945012  0.7161799273278638  1.0000
  O   O32       1.0  0.9165366892640386  0.10286709909178811  0.2758565113474076  1.0000
  O   O33       1.0  0.30073455184543063  0.3585899299345689  0.5032928963193362  1.0000
  O   O34       1.0  0.656722350605976  0.3554664560132841  0.4837517226401416  1.0000
  O   O35       1.0  0.6587897041919728  0.611690528159413  0.4827092577088315  1.0000
  O   O36       1.0  0.2977475268003227  0.6114150607482896  0.5031205777407326  1.0000
  O   O37       1.0  0.7963369472859066  0.8591450123198258  0.5053995130391763  1.0000
  O   O38       1.0  0.15463284664749746  0.8524332051389703  0.48023330445931317  1.0000
  O   O39       1.0  0.15651515283292627  0.11134233530696046  0.48214104090396126  1.0000
  O   O40       1.0  0.7982099806482063  0.10847375648730212  0.509065940679017  1.0000
  O   O41       1.0  0.23473277045646157  0.4844490508757478  0.2850369430969782  1.0000
  O   O42       1.0  0.7185064698269484  0.4835007789313355  0.69885622699449  1.0000
  O   O43       1.0  0.7283211908200697  0.9842948164805239  0.2871208639197408  1.0000
  O   O44       1.0  0.2153589675322918  0.9807749719924  0.6940982298801952  1.0000
  O   O45       1.0  0.35554007017277783  0.4855579083490412  0.7222004889903331  1.0000
  O   O46       1.0  0.6048038836228923  0.48391187555159026  0.26730290860656536  1.0000
  O   O47       1.0  0.85871054772605  0.9833889221626263  0.7295051457235376  1.0000
  O   O48       1.0  0.10482253213891693  0.9828956356541181  0.26697513545150614  1.0000
