data_image0
_chemical_formula_structural       GeSi23O48
_chemical_formula_sum              "Ge1 Si23 O48"
_cell_length_a       10.789779373125596
_cell_length_b       15.555877690399795
_cell_length_c       9.198880955925684
_cell_angle_alpha    89.99900237130417
_cell_angle_beta     105.59969265524332
_cell_angle_gamma    90.03764934252715

_space_group_name_H-M_alt    "P 1"
_space_group_IT_number       1

loop_
  _space_group_symop_operation_xyz
  'x, y, z'

loop_
  _atom_site_type_symbol
  _atom_site_label
  _atom_site_symmetry_multiplicity
  _atom_site_fract_x
  _atom_site_fract_y
  _atom_site_fract_z
  _atom_site_occupancy
  Ge  Ge1       1.0  0.2876305499300419  0.3809452860993081  0.3183576979085647  1.0000
  Si  Si1       1.0  0.3389499140071996  0.22771284042638368  0.8862450098526855  1.0000
  Si  Si2       1.0  0.6340931393905824  0.2256675350006855  0.09418680554905141  1.0000
  Si  Si3       1.0  0.6375323012155003  0.7379750992096075  0.09340249716465185  1.0000
  Si  Si4       1.0  0.34263077932911395  0.7412710653467305  0.8827022819399186  1.0000
  Si  Si5       1.0  0.8425772006374034  0.7257987686946612  0.8827956223219627  1.0000
  Si  Si6       1.0  0.13726285386905618  0.7302297054570566  0.09287447421361258  1.0000
  Si  Si7       1.0  0.12972833899284558  0.23721315402529164  0.09094718032588874  1.0000
  Si  Si8       1.0  0.8348596470824536  0.23657410026563191  0.8784658502304  1.0000
  Si  Si9       1.0  0.6813360625374865  0.38032322912110056  0.6572166033527238  1.0000
  Si  Si10      1.0  0.6847994401138983  0.5848982078445255  0.658183780823276  1.0000
  Si  Si11      1.0  0.2926126747432632  0.5895026936779576  0.31982819049576267  1.0000
  Si  Si12      1.0  0.7927992152034853  0.8795240706902342  0.31872186234856426  1.0000
  Si  Si13      1.0  0.18443392826037644  0.8816915159990094  0.6576925172457826  1.0000
  Si  Si14      1.0  0.18086545586971184  0.08730274688828939  0.6585464142444221  1.0000
  Si  Si15      1.0  0.7902425525693532  0.08406629094068269  0.31725632278278576  1.0000
  Si  Si16      1.0  0.390595472092363  0.38193872535309153  0.6848051694076702  1.0000
  Si  Si17      1.0  0.5851572111350399  0.3798455184599604  0.2964696499292508  1.0000
  Si  Si18      1.0  0.5848263880761113  0.5848056871388926  0.29825406663112203  1.0000
  Si  Si19      1.0  0.39306015273626066  0.5866651088366672  0.6800541592696657  1.0000
  Si  Si20      1.0  0.8922008261792745  0.879606878247174  0.6781994706976834  1.0000
  Si  Si21      1.0  0.08499817821351734  0.8812596812916348  0.2993247296999421  1.0000
  Si  Si22      1.0  0.08213561026586218  0.0860900251725354  0.29961900163741295  1.0000
  Si  Si23      1.0  0.8888861559637594  0.08384405289558233  0.6773941706985281  1.0000
  O   O1        1.0  0.48581564872510463  0.20316806254457243  0.9910839293393169  1.0000
  O   O2        1.0  0.49127897486004996  0.762335058380182  0.9864790465438338  1.0000
  O   O3        1.0  0.9912653394739693  0.7046189224830168  0.9864385411910478  1.0000
  O   O4        1.0  0.9839685109648394  0.2572858240602392  0.9799000428536158  1.0000
  O   O5        1.0  0.2991471476475435  0.1491099918789999  0.7579811701836614  1.0000
  O   O6        1.0  0.6708200286819509  0.14503944630885868  0.21857924128462977  1.0000
  O   O7        1.0  0.6746399319371371  0.8177398946679185  0.21948379268828055  1.0000
  O   O8        1.0  0.30497597607907045  0.8223933886167464  0.7592869751556465  1.0000
  O   O9        1.0  0.8048433839080414  0.6451442750756538  0.7583302384472851  1.0000
  O   O10       1.0  0.17599269791572175  0.6531849255673725  0.22375060798041266  1.0000
  O   O11       1.0  0.15585746254573432  0.3189727337706694  0.21445552530027534  1.0000
  O   O12       1.0  0.7988427354371973  0.3179085646346435  0.7556115433314465  1.0000
  O   O13       1.0  0.3347939749520975  0.32453177009425926  0.8057840734320074  1.0000
  O   O14       1.0  0.6463923341974835  0.32094811193630773  0.18184445662009857  1.0000
  O   O15       1.0  0.6432387061777568  0.6429811466389881  0.18025582860369813  1.0000
  O   O16       1.0  0.3336290726397805  0.6463088721141305  0.7951787445866872  1.0000
  O   O17       1.0  0.8331477161525634  0.8205406393641078  0.7944782717562475  1.0000
  O   O18       1.0  0.1424233625322304  0.8259236009628624  0.1772272950521373  1.0000
  O   O19       1.0  0.14075079616878056  0.14282280465445985  0.18026524238528546  1.0000
  O   O20       1.0  0.8246836893879328  0.14174763325568224  0.7903894929644245  1.0000
  O   O21       1.0  0.23722602227605813  0.23320709592819652  0.992314766625917  1.0000
  O   O22       1.0  0.7343414402817885  0.23064585985820182  0.986035896885773  1.0000
  O   O23       1.0  0.7416524982171162  0.7312344595789515  0.9901991127172068  1.0000
  O   O24       1.0  0.2413623268006555  0.7355246360715274  0.9896079478073941  1.0000
  O   O25       1.0  0.42741557352466997  0.35600499475726105  0.25832293651259275  1.0000
  O   O26       1.0  0.5472092469706034  0.36106307757183087  0.7105140776942103  1.0000
  O   O27       1.0  0.5508543640004095  0.6062049079287435  0.7110777129040724  1.0000
  O   O28       1.0  0.42779535637267035  0.6064936399502954  0.267567692449511  1.0000
  O   O29       1.0  0.9284898038600156  0.8582611228689666  0.26995952906236  1.0000
  O   O30       1.0  0.04942211607049326  0.8587644386702503  0.7073632373041376  1.0000
  O   O31       1.0  0.04565873640848715  0.10738268536549682  0.7096221860396287  1.0000
  O   O32       1.0  0.9247535748257083  0.10695905996694448  0.26696288492431175  1.0000
  O   O33       1.0  0.30461808857179823  0.3535885116694656  0.5108087643786904  1.0000
  O   O34       1.0  0.6617513561986483  0.3558496958539625  0.47522677640219074  1.0000
  O   O35       1.0  0.6656559152763757  0.6090188637492246  0.47585814443321006  1.0000
  O   O36       1.0  0.3135319863488393  0.61173317112102  0.5027264008175211  1.0000
  O   O37       1.0  0.8098657035323042  0.8564584975809335  0.5008499615997293  1.0000
  O   O38       1.0  0.16790721846291357  0.8567383668787586  0.47607375838916655  1.0000
  O   O39       1.0  0.16233346418652103  0.11181746234282083  0.47656961601293324  1.0000
  O   O40       1.0  0.8078759247642278  0.10649866975185952  0.4995368415368161  1.0000
  O   O41       1.0  0.2368859130180457  0.48928930582894004  0.2785415603749556  1.0000
  O   O42       1.0  0.7296111487607015  0.48225865881645025  0.6926548276192839  1.0000
  O   O43       1.0  0.7463382269486676  0.9815033162398679  0.27959958042903643  1.0000
  O   O44       1.0  0.2267937612787703  0.9847723719516804  0.6928514768041605  1.0000
  O   O45       1.0  0.36643454216453447  0.484853282164025  0.721920591447908  1.0000
  O   O46       1.0  0.6085860446841812  0.48245529105053325  0.2566532053089575  1.0000
  O   O47       1.0  0.8682325232766167  0.981539595170927  0.7215155192044576  1.0000
  O   O48       1.0  0.10765140736236417  0.9839316734435488  0.2602383489220578  1.0000
