data_image0
_chemical_formula_structural       Ge24O48
_chemical_formula_sum              "Ge24 O48"
_cell_length_a       11.11951657707564
_cell_length_b       16.351198567179452
_cell_length_c       9.607535279193796
_cell_angle_alpha    89.99999242630177
_cell_angle_beta     105.70298905655947
_cell_angle_gamma    89.99918250504624

_space_group_name_H-M_alt    "P 1"
_space_group_IT_number       1

loop_
  _space_group_symop_operation_xyz
  'x, y, z'

loop_
  _atom_site_type_symbol
  _atom_site_label
  _atom_site_symmetry_multiplicity
  _atom_site_fract_x
  _atom_site_fract_y
  _atom_site_fract_z
  _atom_site_occupancy
  Ge  Ge1       1.0  0.3309942387803509  0.20538792542101383  0.8724013887459113  1.0000
  Ge  Ge2       1.0  0.627962714251676  0.20944047520670542  0.08005269379335538  1.0000
  Ge  Ge3       1.0  0.6280107000205356  0.7136000192719405  0.08004928506338987  1.0000
  Ge  Ge4       1.0  0.3310909370916062  0.7176447297315404  0.87236373880233  1.0000
  Ge  Ge5       1.0  0.8310858418440219  0.7052922857097407  0.8723310517275612  1.0000
  Ge  Ge6       1.0  0.1280063105730698  0.7093920237059563  0.08001141087359595  1.0000
  Ge  Ge7       1.0  0.12793086938854878  0.2137091913781926  0.08007073219856672  1.0000
  Ge  Ge8       1.0  0.8310122195130345  0.2177406466321622  0.8722978899235185  1.0000
  Ge  Ge9       1.0  0.26221552695015526  0.3597123983167255  0.3032062681663041  1.0000
  Ge  Ge10      1.0  0.6579508132566082  0.35858443867499584  0.6496922904830712  1.0000
  Ge  Ge11      1.0  0.6579442258149719  0.5644686625320142  0.6497442053386581  1.0000
  Ge  Ge12      1.0  0.26224899596023366  0.5633656961913863  0.30320942976153276  1.0000
  Ge  Ge13      1.0  0.7621962380657699  0.8596648218249571  0.30325243857703643  1.0000
  Ge  Ge14      1.0  0.1579199769090903  0.8585794515298759  0.6498563272199352  1.0000
  Ge  Ge15      1.0  0.15790141010242503  0.06443741560988643  0.6499171050986249  1.0000
  Ge  Ge16      1.0  0.7621727268182901  0.06338177409147154  0.3032674360331246  1.0000
  Ge  Ge17      1.0  0.36021388317834024  0.3593574304091321  0.6665979452505192  1.0000
  Ge  Ge18      1.0  0.5615429895686475  0.3592505364827489  0.28963907387311105  1.0000
  Ge  Ge19      1.0  0.5615553275190079  0.5638180345132684  0.289667149462004  1.0000
  Ge  Ge20      1.0  0.36024257689339123  0.5636544521803818  0.6665936371814463  1.0000
  Ge  Ge21      1.0  0.860020720607275  0.8594114587301136  0.6667554362761318  1.0000
  Ge  Ge22      1.0  0.061598699684625044  0.8592025634921917  0.2896807822478349  1.0000
  Ge  Ge23      1.0  0.061604322762810707  0.06384452943148788  0.2897374652859787  1.0000
  Ge  Ge24      1.0  0.8599405713949109  0.06359077309932872  0.6667277154935143  1.0000
  O   O1        1.0  0.49597416762738566  0.19088813677882258  0.9308415404510185  1.0000
  O   O2        1.0  0.49606903250898693  0.7321701954483605  0.9307805632531035  1.0000
  O   O3        1.0  0.9961035716907201  0.6909194273454358  0.9306399703441488  1.0000
  O   O4        1.0  0.9960093178145107  0.23216387846281314  0.9307224995964695  1.0000
  O   O5        1.0  0.28848821220110704  0.12002996849442543  0.7537248232835037  1.0000
  O   O6        1.0  0.6377588889200135  0.12460412116195774  0.19985568533009282  1.0000
  O   O7        1.0  0.6377817707825922  0.7984593199903051  0.19979649486490972  1.0000
  O   O8        1.0  0.2884987131369668  0.8029375825145926  0.7535529887918408  1.0000
  O   O9        1.0  0.7886459617623686  0.6200341011180774  0.7533876644856157  1.0000
  O   O10       1.0  0.13778041097387822  0.624531035095318  0.19975176436630107  1.0000
  O   O11       1.0  0.13767441882924486  0.2986075679192988  0.19973104546845  1.0000
  O   O12       1.0  0.788623073138623  0.3029778376629455  0.7532995468402881  1.0000
  O   O13       1.0  0.29235243201602107  0.30153119484483715  0.7827581324453328  1.0000
  O   O14       1.0  0.6270936036111098  0.3055893859685797  0.16735825741507643  1.0000
  O   O15       1.0  0.6271631592517236  0.6174836520331436  0.16745001375521212  1.0000
  O   O16       1.0  0.29243170188775486  0.6214788590876706  0.7828130486282385  1.0000
  O   O17       1.0  0.792270088441701  0.801469184953778  0.7828699646759445  1.0000
  O   O18       1.0  0.12726540015934842  0.805465599618265  0.16758548116242597  1.0000
  O   O19       1.0  0.12719318751031827  0.11763022819948635  0.16763014574343654  1.0000
  O   O20       1.0  0.7922923086675451  0.12152452042357689  0.7829551609033044  1.0000
  O   O21       1.0  0.26691022199278736  0.20380566999200184  0.022851837929129194  1.0000
  O   O22       1.0  0.7668454629682602  0.21949135810449755  0.02268138717460666  1.0000
  O   O23       1.0  0.7669078389306777  0.7035394810683463  0.022706228333659595  1.0000
  O   O24       1.0  0.26696346979240787  0.7193179511977378  0.022773136679022185  1.0000
  O   O25       1.0  0.3963526522509276  0.3440058624615976  0.23780409799881827  1.0000
  O   O26       1.0  0.525010649205041  0.3413196876552474  0.7166876469056644  1.0000
  O   O27       1.0  0.5250234547680594  0.5817544415937664  0.7167737770379906  1.0000
  O   O28       1.0  0.3963658686372525  0.5790435952358116  0.23776200019421828  1.0000
  O   O29       1.0  0.8965093179031981  0.8435465896582878  0.23836713907086518  1.0000
  O   O30       1.0  0.024773669353222748  0.8412396979316825  0.7164321902165817  1.0000
  O   O31       1.0  0.024672810020831493  0.08185172701675494  0.7163081956151159  1.0000
  O   O32       1.0  0.8965075358957898  0.07947813847200728  0.23842035266273645  1.0000
  O   O33       1.0  0.2851972499372131  0.3275631198832034  0.4862072665134871  1.0000
  O   O34       1.0  0.6336903430574172  0.3232455323528948  0.46820429608359077  1.0000
  O   O35       1.0  0.6336037788908538  0.5998211380493099  0.46825258489418853  1.0000
  O   O36       1.0  0.2852050267416897  0.5954920487288402  0.4862243818683845  1.0000
  O   O37       1.0  0.7845775565826294  0.8278727300910509  0.4863420788182237  1.0000
  O   O38       1.0  0.13437598712211896  0.8235407535790826  0.4683014375372044  1.0000
  O   O39       1.0  0.13434520257526678  0.0994865688953064  0.468369988247681  1.0000
  O   O40       1.0  0.7844085996324892  0.09513778758466226  0.486348920587785  1.0000
  O   O41       1.0  0.2027255703454042  0.4615438502622685  0.27426987644528766  1.0000
  O   O42       1.0  0.7128550696940116  0.46152575313269356  0.6727309729910674  1.0000
  O   O43       1.0  0.702944727649031  0.9615208223486558  0.2734750069101534  1.0000
  O   O44       1.0  0.21278369948651388  0.9615099965989907  0.6735831150747397  1.0000
  O   O45       1.0  0.3209191323967016  0.4615096450166321  0.702791437804759  1.0000
  O   O46       1.0  0.6052293652494767  0.4615354674543011  0.26135782405306496  1.0000
  O   O47       1.0  0.8209633321528544  0.9614956514346038  0.7036767096102369  1.0000
  O   O48       1.0  0.10454175297269352  0.9615275269172107  0.2604856680823207  1.0000
