data_c00028.vasp
_audit_creation_method             Generated by GULP
_audit_author_name                 Salvador R. G. Balestra
_symmetry_space_group_name_H-M     'P 1             '
_symmetry_Int_Tables_number        1

loop_
_symmetry_equiv_pos_site_id
_symmetry_equiv_pos_as_xyz
_cell_length_a                       10.3347
_cell_length_b                       15.7770
_cell_length_c                        9.2934
_cell_angle_alpha                   90.3737
_cell_angle_beta                   105.2010
_cell_angle_gamma                   90.1097

loop_
_atom_site_label
_atom_site_type_symbol
_atom_site_fract_x
_atom_site_fract_y
_atom_site_fract_z
_atom_site_charge
  Ge     Ge        0.351599999999962    0.244500000000016    0.893900000000031  0.0000
  Ge     Ge        0.646831638366527    0.235003356145783    0.106948854395348  0.0000
  Ge     Ge        0.630601175143633    0.742517754411907    0.105910780215684  0.0000
  Ge     Ge        0.333517248327606    0.743482815233449    0.888224938312465  0.0000
  Ge     Ge        0.830782284892817    0.748642216526044    0.889998591315482  0.0000
  Ge     Ge        0.130923024463292    0.726216777389001    0.094122948447853  0.0000
  Ge     Ge        0.143613293085826    0.241569855077812    0.097000218349074  0.0000
  Ge     Ge        0.840843896879533    0.249235071473420    0.886286921928564  0.0000
  Ge     Ge        0.327238165278132    0.379008752234033    0.334630154936581  0.0000
  Ge     Ge        0.733781909966795    0.402888176331295    0.669623487679017  0.0000
  Ge     Ge        0.716518592577924    0.601864183080549    0.652504271774533  0.0000
  Ge     Ge        0.314995107783545    0.585945672636718    0.310459508345351  0.0000
  Ge     Ge        0.810983885989221    0.887121701920261    0.328123209129928  0.0000
  Ge     Ge        0.215474285501614    0.897016578611378    0.676605011709410  0.0000
  Ge     Ge        0.216817876189788    0.100343069270707    0.658540107796201  0.0000
  Ge     Ge        0.422297957517456    0.394772756498621    0.686729379210242  0.0000
  Ge     Ge        0.404817530090222    0.597569290759843    0.664253395758458  0.0000
  Ge     Ge        0.904864739055342    0.898407181971677    0.687149276960447  0.0000
  Ge     Ge        0.118810572941102    0.880169151896863    0.314786288080664  0.0000
  Ge     Ge        0.123496635548809    0.083908585770869    0.299192846226508  0.0000
  Ge     Ge        0.903650646937649    0.100835063565530    0.662845937546507  0.0000
  Si     Si        0.819731982262029    0.088058458994423    0.312198868713493  0.0000
  Si     Si        0.627917257248735    0.387687964330034    0.314924565750547  0.0000
  Si     Si        0.616117793248403    0.585380452116629    0.296468331129098  0.0000
  O1     O1        0.476019391296555    0.221660470615795    0.050638915449920  0.0000
  O1     O1        0.458882310217680    0.748450323614653    0.049580764320283  0.0000
  O1     O1        0.958627772538159    0.723917665846441    0.042059120091782  0.0000
  O1     O1        0.971526317982815    0.249582890903746    0.042163625125796  0.0000
  O1     O1        0.337694068769997    0.167174326312970    0.759698216984898  0.0000
  O3     O3        0.707893022837402    0.144785583418884    0.204276133800908  0.0000
  O1     O1        0.682818204429637    0.825609098407495    0.226491286956511  0.0000
  O1     O1        0.335206451704273    0.832824703352011    0.783490598843158  0.0000
  O1     O1        0.824322890858720    0.677507359370880    0.746253401519091  0.0000
  O1     O1        0.186363916088973    0.633573695737542    0.184838969669984  0.0000
  O1     O1        0.201078052754414    0.319351217752689    0.227214103656640  0.0000
  O1     O1        0.848214970708317    0.337029429405636    0.778625764243230  0.0000
  O1     O1        0.376463579345780    0.341478889088734    0.824449754799740  0.0000
  O3     O3        0.692438915003112    0.326293399068720    0.215658700257077  0.0000
  O3     O3        0.677685082264980    0.644856084932584    0.192388386190009  0.0000
  O1     O1        0.339666389037027    0.654853156026349    0.783760824561011  0.0000
  O1     O1        0.847918205564000    0.846773531080763    0.819630487380564  0.0000
  O1     O1        0.186035844372675    0.810390718731388    0.214039945638361  0.0000
  O1     O1        0.181857918094944    0.143459929489004    0.177290775323010  0.0000
  O1     O1        0.833152110386409    0.163376035590249    0.770567718796008  0.0000
  O1     O1        0.202451652595159    0.250412845367046    0.943346681764813  0.0000
  O1     O1        0.697134328569815    0.247095750300326    0.947141331991930  0.0000
  O1     O1        0.686156412959609    0.747630663847200    0.948442351464225  0.0000
  O1     O1        0.183424155292688    0.738367908950983    0.935941457874025  0.0000
  O3     O3        0.468018115465596    0.373108901365306    0.265628051946566  0.0000
  O1     O1        0.593368778764300    0.404258207594153    0.734661397652513  0.0000
  O1     O1        0.577052789905007    0.602805352968619    0.719920728052424  0.0000
  O3     O3        0.455505070521506    0.590111656546994    0.241281533515303  0.0000
  O1     O1        0.945970046871435    0.875686951441887    0.254648413788058  0.0000
  O1     O1        0.076774326052945    0.901491817160992    0.745597758284337  0.0000
  O1     O1        0.075733259033235    0.105561305710510    0.724144986142236  0.0000
  O3     O3        0.949119683475864    0.082200112469320    0.247431434022325  0.0000
  O1     O1        0.367988569952791    0.344960060436494    0.515744259472186  0.0000
  O3     O3        0.686115834845480    0.365331392012070    0.487327639811392  0.0000
  O3     O3        0.663483871642478    0.621853501201564    0.463688699067594  0.0000
  O1     O1        0.348762524390338    0.632981104121019    0.483490183719029  0.0000
  O1     O1        0.852169460030315    0.855012949765509    0.510913904824140  0.0000
  O1     O1        0.163813423946143    0.854726878946434    0.499847489280540  0.0000
  O1     O1        0.177263200544403    0.127722135773793    0.473977578802055  0.0000
  O3     O3        0.861344408749523    0.129861172116814    0.476379697171152  0.0000
  O1     O1        0.275209607716357    0.482095421657130    0.329913571461779  0.0000
  O1     O1        0.793336041278217    0.504501115510903    0.676567242269612  0.0000
  O3     O3        0.764891870579584    0.993224286893761    0.322845645298600  0.0000
  O1     O1        0.275600325083266    0.997837141218298    0.671251136013504  0.0000
  O1     O1        0.354377639883921    0.494324867265983    0.670126379995537  0.0000
  O2     O2        0.661781381992980    0.487051697430485    0.293572179467172  0.0000
  O1     O1        0.846832386060713    0.000403173140379    0.677050534046859  0.0000
  O1     O1        0.175458925301976    0.981220462660351    0.296407191078959  0.0000
