data_c00002.vasp
_audit_creation_method             Generated by GULP
_audit_author_name                 Salvador R. G. Balestra
_symmetry_space_group_name_H-M     'P 1             '
_symmetry_Int_Tables_number        1

loop_
_symmetry_equiv_pos_site_id
_symmetry_equiv_pos_as_xyz
_cell_length_a                       10.3252
_cell_length_b                       15.8176
_cell_length_c                        9.2776
_cell_angle_alpha                   89.9807
_cell_angle_beta                   104.7296
_cell_angle_gamma                   89.4647

loop_
_atom_site_label
_atom_site_type_symbol
_atom_site_fract_x
_atom_site_fract_y
_atom_site_fract_z
_atom_site_charge
  Ge     Ge        0.351599999999962    0.244500000000016    0.893900000000031  0.0000
  Ge     Ge        0.652871493998719    0.253492404593482    0.095335421640516  0.0000
  Ge     Ge        0.658725557272506    0.752535504448882    0.100834617846695  0.0000
  Ge     Ge        0.363818808680513    0.756031782850771    0.882315775584045  0.0000
  Ge     Ge        0.860497059625319    0.743033766233411    0.891908612110254  0.0000
  Ge     Ge        0.160646688876796    0.756844089005371    0.096785216426735  0.0000
  Ge     Ge        0.152224883757594    0.251116568991241    0.107529528251426  0.0000
  Ge     Ge        0.859543362466257    0.252743188479830    0.884520455232339  0.0000
  Ge     Ge        0.268237108149415    0.405368692320132    0.322004374041246  0.0000
  Ge     Ge        0.677634343512862    0.394931743888451    0.661439212539406  0.0000
  Ge     Ge        0.678563771504272    0.600787618727681    0.670430818678171  0.0000
  Ge     Ge        0.274860984746311    0.606716576954746    0.327364590064750  0.0000
  Ge     Ge        0.773941948366562    0.904637873574487    0.315538955124292  0.0000
  Ge     Ge        0.182967024246440    0.898333254036648    0.659079915210167  0.0000
  Ge     Ge        0.174659777213204    0.102453239404437    0.662929427901447  0.0000
  Ge     Ge        0.775577450396358    0.106134920940443    0.329363174299556  0.0000
  Ge     Ge        0.371351160368310    0.400836891142963    0.686206336341239  0.0000
  Ge     Ge        0.578937847714548    0.401959478798057    0.306529782239770  0.0000
  Ge     Ge        0.586532296150171    0.605523877774995    0.317097239023921  0.0000
  Ge     Ge        0.876336594977959    0.898798443910595    0.679812078332596  0.0000
  Ge     Ge        0.082340886128006    0.905737839028955    0.301965194531922  0.0000
  Si     Si        0.374126113402032    0.599805666308213    0.683966311449379  0.0000
  Si     Si        0.080453685865316    0.105601837167282    0.316308736390910  0.0000
  Si     Si        0.871291424443821    0.097822606958226    0.683075637224064  0.0000
  O1     O1        0.523430722209170    0.233902606905336    0.943914723197816  0.0000
  O1     O1        0.535197819378010    0.762020668554665    0.939319473392425  0.0000
  O1     O1        0.032681092506130    0.737747560114247    0.942830876907863  0.0000
  O1     O1        0.030595692306208    0.260612248680849    0.944696629744421  0.0000
  O1     O1        0.293902004519635    0.162664031476474    0.774656493325049  0.0000
  O1     O1        0.662809695643021    0.176772532989992    0.230439889215866  0.0000
  O1     O1        0.655798958371172    0.837333822500027    0.216193202916693  0.0000
  O1     O1        0.311610087966046    0.839018229990857    0.763898767665656  0.0000
  O1     O1        0.802671560726769    0.654436145343912    0.790366419640140  0.0000
  O1     O1        0.164453506762839    0.680380340865262    0.230972851268673  0.0000
  O1     O1        0.152439523334507    0.337210477351546    0.219912660046074  0.0000
  O1     O1        0.806484612720708    0.335550825378933    0.765678975579713  0.0000
  O1     O1        0.305736674909464    0.338716160597513    0.799560210666369  0.0000
  O1     O1        0.634685836756468    0.349585119258603    0.173166238109718  0.0000
  O1     O1        0.649353035910080    0.660154089983119    0.192874436183396  0.0000
  O3     O3        0.315241597659885    0.661882891684680    0.787760891865788  0.0000
  O1     O1        0.809001523683994    0.832611311478293    0.785279957983171  0.0000
  O1     O1        0.146477105681475    0.854171252545944    0.174141266487210  0.0000
  O3     O3        0.137130039257271    0.159062837314712    0.200973849028007  0.0000
  O3     O3        0.814666105003435    0.157669917050009    0.791937645254788  0.0000
  O1     O1        0.300446548604876    0.242975200554932    0.055159551529865  0.0000
  O1     O1        0.798999267439858    0.255328204422916    0.039462177536905  0.0000
  O1     O1        0.808737054418229    0.748965904658150    0.052133587069954  0.0000
  O1     O1        0.306572123672978    0.757767834008090    0.039864253396354  0.0000
  O1     O1        0.407026224914473    0.405404693815400    0.252010729021948  0.0000
  O1     O1        0.542782099979003    0.390177863132269    0.738730247093715  0.0000
  O3     O3        0.535573035765897    0.600003605393133    0.736275978360644  0.0000
  O1     O1        0.414630761604655    0.607913329368932    0.259406997353194  0.0000
  O1     O1        0.911384096157725    0.902653799049600    0.242570893190335  0.0000
  O1     O1        0.047991466292491    0.891599394145875    0.735732571875560  0.0000
  O3     O3        0.032821286145346    0.099798848029364    0.729987952961450  0.0000
  O3     O3        0.919341871520700    0.106342597494494    0.265343371944213  0.0000
  O1     O1        0.315026732631999    0.371148675075463    0.503489956290875  0.0000
  O1     O1        0.630080038156155    0.357794276300929    0.481529792988261  0.0000
  O1     O1        0.641598582498235    0.644756166202065    0.495255584198512  0.0000
  O3     O3        0.327941391226735    0.632202372264570    0.514306451494111  0.0000
  O1     O1        0.826319179247435    0.870065329686308    0.496467427407167  0.0000
  O1     O1        0.137268947538724    0.863297054337488    0.477842185493651  0.0000
  O3     O3        0.130646102149834    0.142764257562201    0.482739401934847  0.0000
  O3     O3        0.818619031127697    0.132838756502297    0.515520347819749  0.0000
  O1     O1        0.206664430758858    0.507386820287230    0.311392896743004  0.0000
  O1     O1        0.728435953054520    0.497808850516929    0.659871921263939  0.0000
  O1     O1        0.711537919924041    0.005912482301122    0.309036661502261  0.0000
  O1     O1        0.234221900950324    0.001380988592777    0.662837868913136  0.0000
  O3     O3        0.322460551945136    0.505438428030203    0.696641886734418  0.0000
  O1     O1        0.640421929778233    0.502640032854650    0.320216415105583  0.0000
  O3     O3        0.823138650800736    0.002376434757033    0.693141947125482  0.0000
  O3     O3        0.134158289471303    0.010003238287843    0.317941886650035  0.0000
