data_c00042.vasp
_audit_creation_method             Generated by GULP
_audit_author_name                 Salvador R. G. Balestra
_symmetry_space_group_name_H-M     'P 1             '
_symmetry_Int_Tables_number        1

loop_
_symmetry_equiv_pos_site_id
_symmetry_equiv_pos_as_xyz
_cell_length_a                       10.3340
_cell_length_b                       15.8047
_cell_length_c                        9.2169
_cell_angle_alpha                   91.0767
_cell_angle_beta                   105.5543
_cell_angle_gamma                   89.8070

loop_
_atom_site_label
_atom_site_type_symbol
_atom_site_fract_x
_atom_site_fract_y
_atom_site_fract_z
_atom_site_charge
  Ge     Ge        0.351599999999962    0.244500000000016    0.893900000000031  0.0000
  Ge     Ge        0.651076717519909    0.224096081960665    0.102714812498301  0.0000
  Ge     Ge        0.626589458437601    0.744794338651579    0.095074950169857  0.0000
  Ge     Ge        0.324939441149615    0.743604105433431    0.877332286321568  0.0000
  Ge     Ge        0.833689985338709    0.754471693699872    0.890746096426104  0.0000
  Ge     Ge        0.130078993417117    0.719230991162699    0.095022314230148  0.0000
  Ge     Ge        0.146185239683581    0.233951630523163    0.100916563702041  0.0000
  Ge     Ge        0.843981783402104    0.250270570193500    0.886342754532965  0.0000
  Ge     Ge        0.323494678543330    0.373529092862551    0.339589736638575  0.0000
  Ge     Ge        0.731706576515942    0.407918541911143    0.689834285070341  0.0000
  Ge     Ge        0.706123307738448    0.607974068849903    0.649798252381230  0.0000
  Ge     Ge        0.306786001346570    0.575711269145477    0.307595862212189  0.0000
  Ge     Ge        0.813662036315194    0.879863397007032    0.332946119555368  0.0000
  Ge     Ge        0.220732192921200    0.096962627850663    0.657831159290473  0.0000
  Ge     Ge        0.423412828019315    0.399711276965705    0.699725135564027  0.0000
  Ge     Ge        0.631928060335081    0.379661463001213    0.322157412522802  0.0000
  Ge     Ge        0.614850046772522    0.581694525957808    0.285074356250172  0.0000
  Ge     Ge        0.912006658197354    0.902571417153947    0.691221198004011  0.0000
  Ge     Ge        0.121902599962446    0.873499566393073    0.317975285440791  0.0000
  Ge     Ge        0.129094382963387    0.074286056684205    0.293056816411979  0.0000
  Ge     Ge        0.907223027803524    0.103632957656378    0.655137735785067  0.0000
  Si     Si        0.215066832772563    0.899516928582785    0.677278760815731  0.0000
  Si     Si        0.824294546803540    0.079342239796995    0.303427258575192  0.0000
  Si     Si        0.402254221481225    0.597820019214727    0.661334138531824  0.0000
  O1     O1        0.478325423922957    0.220249993935584    0.049472543982729  0.0000
  O1     O1        0.453745073546852    0.748668638299320    0.037656492705204  0.0000
  O1     O1        0.957641739474585    0.721666997457044    0.042070764979796  0.0000
  O1     O1        0.973329766992715    0.240385959200740    0.044087692681452  0.0000
  O1     O1        0.339725324167460    0.166050745974164    0.758553166204533  0.0000
  O3     O3        0.708892306967107    0.129483155598807    0.186449166243152  0.0000
  O1     O1        0.680602761558303    0.821202991959973    0.232685472957614  0.0000
  O3     O3        0.321547801654392    0.836793261807912    0.779916273419980  0.0000
  O1     O1        0.815462297465485    0.683237924831981    0.743531270430146  0.0000
  O1     O1        0.177348647761957    0.626517265044041    0.186644564575875  0.0000
  O1     O1        0.201114055936802    0.305228662866667    0.246043794663175  0.0000
  O1     O1        0.851625898199930    0.346850022330618    0.804877592312073  0.0000
  O1     O1        0.368861490991176    0.343642434112874    0.828280002405775  0.0000
  O1     O1        0.703295204555256    0.307413246758441    0.227466240597395  0.0000
  O1     O1        0.670799145265947    0.645580713670708    0.167031752094008  0.0000
  O3     O3        0.336664866970326    0.658483067251437    0.761864518620348  0.0000
  O1     O1        0.868995868061338    0.852120115192671    0.833382562246154  0.0000
  O1     O1        0.190751905110552    0.800381398119091    0.223253027628523  0.0000
  O1     O1        0.184966095442735    0.133634528582051    0.169881515922990  0.0000
  O1     O1        0.834320942176091    0.174107557336459    0.748967952348415  0.0000
  O1     O1        0.204814212881233    0.250619177397897    0.948601075402624  0.0000
  O1     O1        0.698021491692005    0.240094713974958    0.941350374954526  0.0000
  O1     O1        0.686292608787238    0.761361332324580    0.942455753806826  0.0000
  O1     O1        0.180824956888275    0.729936304796888    0.933448968695989  0.0000
  O1     O1        0.459129527852898    0.370228249590678    0.264718798933220  0.0000
  O1     O1        0.594009314184066    0.407168643913815    0.761305779936211  0.0000
  O3     O3        0.563805154635989    0.605287822788926    0.716422295486645  0.0000
  O1     O1        0.442097445081211    0.576872011699296    0.233103241312337  0.0000
  O1     O1        0.948918044738173    0.864328109688915    0.260320483279156  0.0000
  O3     O3        0.085699044990850    0.909240750716194    0.741499656976287  0.0000
  O1     O1        0.079512223073983    0.109165541172373    0.720710589258523  0.0000
  O3     O3        0.954466056675357    0.071220053845078    0.240719720093973  0.0000
  O1     O1        0.374747123346890    0.349167306535224    0.527108766598266  0.0000
  O1     O1        0.683237776936883    0.363282703324082    0.511630612942847  0.0000
  O1     O1        0.663183792973197    0.627615931532059    0.462306150404619  0.0000
  O3     O3        0.353210531403968    0.622559273223121    0.486420789713034  0.0000
  O1     O1        0.852301629253024    0.852566271082576    0.519576653875801  0.0000
  O3     O3        0.165146489702803    0.858951042974087    0.510168197527960  0.0000
  O1     O1        0.185670320103867    0.118537078014159    0.470077183792052  0.0000
  O3     O3        0.865884144936876    0.127151088632465    0.465085948360686  0.0000
  O1     O1        0.258285972554128    0.474029383196703    0.323323178930906  0.0000
  O1     O1        0.781961039117951    0.509908270161503    0.679332072724575  0.0000
  O3     O3        0.771956278772050    0.986325901047958    0.326526573045322  0.0000
  O3     O3        0.277112322198309    0.992356420636119    0.674894544117999  0.0000
  O3     O3        0.358463249758723    0.501724008440435    0.679500639495086  0.0000
  O1     O1        0.676580032675847    0.480975672058116    0.287119052653125  0.0000
  O1     O1        0.852915111434855    0.004208678810478    0.681171038752184  0.0000
  O1     O1        0.178520573972129    0.971437777382931    0.285804026858684  0.0000
