data_c00081.vasp
_audit_creation_method             Generated by GULP
_audit_author_name                 Salvador R. G. Balestra
_symmetry_space_group_name_H-M     'P 1             '
_symmetry_Int_Tables_number        1

loop_
_symmetry_equiv_pos_site_id
_symmetry_equiv_pos_as_xyz
_cell_length_a                       10.1625
_cell_length_b                       15.7996
_cell_length_c                        9.2900
_cell_angle_alpha                   90.2210
_cell_angle_beta                   104.9767
_cell_angle_gamma                   89.6894

loop_
_atom_site_label
_atom_site_type_symbol
_atom_site_fract_x
_atom_site_fract_y
_atom_site_fract_z
_atom_site_charge
  Ge     Ge        0.351599999999962    0.244500000000016    0.893900000000031  0.0000
  Ge     Ge        0.658707295655176    0.261528336630287    0.098553411593081  0.0000
  Ge     Ge        0.561092904342894    0.761633644925467    0.118909553375182  0.0000
  Ge     Ge        0.264733997287902    0.747942607565339    0.897096623848114  0.0000
  Ge     Ge        0.761530126237433    0.764144678621578    0.901109340770141  0.0000
  Ge     Ge        0.063827317083050    0.740129143401615    0.106740002404957  0.0000
  Ge     Ge        0.146796188548399    0.245829199212811    0.103545238673492  0.0000
  Ge     Ge        0.275798307982975    0.393941070497876    0.326396097329420  0.0000
  Ge     Ge        0.682091119502393    0.408333594045697    0.678168356279252  0.0000
  Ge     Ge        0.658519577015671    0.610426923185912    0.674315712102476  0.0000
  Ge     Ge        0.252513915945999    0.598359619524112    0.324710876671662  0.0000
  Ge     Ge        0.737045144992034    0.908009567336298    0.336436255516955  0.0000
  Ge     Ge        0.149762738612036    0.900241644799247    0.680676831445034  0.0000
  Ge     Ge        0.171261746110963    0.102664968686803    0.668377833978423  0.0000
  Ge     Ge        0.758168896065991    0.109691202508399    0.329658560623326  0.0000
  Ge     Ge        0.364800088890858    0.398929278279666    0.682908546090068  0.0000
  Ge     Ge        0.588773020401142    0.406912984388303    0.315114178666846  0.0000
  Ge     Ge        0.341613481968018    0.602096605314919    0.680739311069999  0.0000
  Ge     Ge        0.839716050811475    0.915216129567153    0.700005114718901  0.0000
  Ge     Ge        0.051317925271918    0.894722384226300    0.322818231200262  0.0000
  Ge     Ge        0.073512921959377    0.097675439684091    0.312672179381928  0.0000
  Si     Si        0.858196805151733    0.264891569544849    0.888594743470706  0.0000
  Si     Si        0.563850784536924    0.606100913720895    0.320928827398519  0.0000
  Si     Si        0.860973038175657    0.113158854965325    0.682264093917167  0.0000
  O1     O1        0.526846070726235    0.248739451785321    0.944463522033321  0.0000
  O1     O1        0.386405523439077    0.758731760153906    0.062043515127814  0.0000
  O1     O1        0.888727977393046    0.744258446807908    0.058680331943834  0.0000
  O3     O3        0.021501453735672    0.265008195250473    0.941390227350443  0.0000
  O1     O1        0.299880515643355    0.156800411155614    0.784836308982920  0.0000
  O1     O1        0.652061525325030    0.183218190253537    0.225242440383596  0.0000
  O1     O1        0.607766114534751    0.847789840482215    0.232129843706661  0.0000
  O1     O1        0.269334850421240    0.832196870431820    0.782340155848918  0.0000
  O1     O1        0.764355748309947    0.686593654999683    0.770868462703721  0.0000
  O1     O1        0.122495774763284    0.649066506559933    0.202437276115933  0.0000
  O1     O1        0.153196418225384    0.326785532536087    0.227867107686020  0.0000
  O3     O3        0.808114953246112    0.348744244415160    0.794864486125463  0.0000
  O1     O1        0.297029044122735    0.334248374385375    0.791379858733022  0.0000
  O1     O1        0.660780468639623    0.355913324392406    0.192319338244885  0.0000
  O3     O3        0.620974812280608    0.670297647848378    0.219146752975127  0.0000
  O1     O1        0.274374427283302    0.655184634834051    0.804650428542977  0.0000
  O1     O1        0.772121477882933    0.861754085958938    0.822841771124646  0.0000
  O1     O1        0.119855934511268    0.825958524788462    0.220108954018775  0.0000
  O1     O1        0.133730326536194    0.150095510468532    0.183202702137528  0.0000
  O2     O2        0.808810357136520    0.182099299000765    0.784595754743686  0.0000
  O1     O1        0.297672950356535    0.242401289682975    0.052534845480710  0.0000
  O3     O3        0.806510610508341    0.258665708518377    0.037684572708981  0.0000
  O1     O1        0.613316187739527    0.764533152115329    0.957844128019229  0.0000
  O1     O1        0.111586031734817    0.745997694485995    0.943920775725863  0.0000
  O1     O1        0.415842375533507    0.394247722845839    0.253667046803113  0.0000
  O1     O1        0.540103311741609    0.405372456410956    0.744738469606665  0.0000
  O1     O1        0.515805592270316    0.607444932335400    0.740996736142794  0.0000
  O3     O3        0.399772077309698    0.601431302563952    0.263323232026396  0.0000
  O1     O1        0.875576853128408    0.899422193204618    0.263303842771268  0.0000
  O1     O1        0.013139372316419    0.906099134721716    0.758347841148127  0.0000
  O3     O3        0.024735392098256    0.105991654137292    0.731316567309875  0.0000
  O1     O1        0.899372058816533    0.102390288454483    0.261523246837396  0.0000
  O1     O1        0.332067616735498    0.358221732018125    0.505733645039895  0.0000
  O1     O1        0.648684376573967    0.373634003223961    0.496830938177962  0.0000
  O3     O3        0.601692581996948    0.640304703927008    0.489549570949726  0.0000
  O1     O1        0.282650734550811    0.639653452522464    0.501467587148256  0.0000
  O1     O1        0.778745353590578    0.878586946755240    0.520752133229150  0.0000
  O1     O1        0.088111585286481    0.860889702580862    0.504040342993779  0.0000
  O1     O1        0.137505694588537    0.139045188820680    0.488852930386214  0.0000
  O3     O3        0.813981141340196    0.144115948944537    0.512638024123559  0.0000
  O1     O1        0.209391120727779    0.493502116915233    0.328006661672889  0.0000
  O1     O1        0.734085370153554    0.512645727995296    0.687052247557561  0.0000
  O1     O1        0.684402198588846    0.012595200350346    0.324597290671898  0.0000
  O1     O1        0.218785451546867    0.997859511860495    0.671569457949196  0.0000
  O1     O1        0.294531255715290    0.497578800850414    0.678592166628181  0.0000
  O3     O3        0.628396687907987    0.513893642040610    0.316289560506263  0.0000
  O3     O3        0.796760923206495    0.022495530494384    0.698479923980235  0.0000
  O1     O1        0.120119657924686    0.992926251986685    0.315924332919028  0.0000
