data_c00020.vasp
_audit_creation_method             Generated by GULP
_audit_author_name                 Salvador R. G. Balestra
_symmetry_space_group_name_H-M     'P 1             '
_symmetry_Int_Tables_number        1

loop_
_symmetry_equiv_pos_site_id
_symmetry_equiv_pos_as_xyz
_cell_length_a                       10.3069
_cell_length_b                       15.8060
_cell_length_c                        9.2824
_cell_angle_alpha                   90.4328
_cell_angle_beta                   105.1837
_cell_angle_gamma                   90.1057

loop_
_atom_site_label
_atom_site_type_symbol
_atom_site_fract_x
_atom_site_fract_y
_atom_site_fract_z
_atom_site_charge
  Ge     Ge        0.351599999999962    0.244500000000016    0.893900000000031  0.0000
  Ge     Ge        0.649446519598193    0.230360012795301    0.102973460600142  0.0000
  Ge     Ge        0.631826907040471    0.744387474935581    0.105673987441228  0.0000
  Ge     Ge        0.332421695074172    0.744621134353421    0.890955544088854  0.0000
  Ge     Ge        0.832732999606846    0.750157654754644    0.891475357083617  0.0000
  Ge     Ge        0.130967850510982    0.731322608989697    0.101697892509218  0.0000
  Ge     Ge        0.145127421438226    0.239395763682049    0.100161328719784  0.0000
  Ge     Ge        0.843719575894767    0.247870942815052    0.885527217853897  0.0000
  Ge     Ge        0.322242001876984    0.381087943992571    0.332250212853821  0.0000
  Ge     Ge        0.733879774093501    0.403977347904517    0.678058952121839  0.0000
  Ge     Ge        0.714955910766004    0.603489961007786    0.656443340685547  0.0000
  Ge     Ge        0.314272441408537    0.586684970492265    0.314337092540732  0.0000
  Ge     Ge        0.818277686295581    0.886076385307588    0.331978258447458  0.0000
  Ge     Ge        0.220109047605986    0.897230742321671    0.674114072671298  0.0000
  Ge     Ge        0.222806751656481    0.098545559830085    0.658779489341672  0.0000
  Ge     Ge        0.420615533451808    0.395908822592332    0.687826771948937  0.0000
  Ge     Ge        0.631208782024807    0.387473171427957    0.314448523577298  0.0000
  Ge     Ge        0.403111553293174    0.598389491052850    0.669484486298167  0.0000
  Ge     Ge        0.908658294632005    0.898807388649293    0.688443633248692  0.0000
  Ge     Ge        0.125359614068293    0.080986079304203    0.296832134351293  0.0000
  Ge     Ge        0.908248877059663    0.100725769331268    0.659281251260688  0.0000
  Si     Si        0.823276418799746    0.086841759820829    0.309304374620561  0.0000
  Si     Si        0.618345121469118    0.586723167198696    0.300022982283828  0.0000
  Si     Si        0.120407731582884    0.882044681318796    0.317937772494068  0.0000
  O1     O1        0.476817296436254    0.222320021706107    0.050390839345117  0.0000
  O1     O1        0.459757172205064    0.751799715764490    0.051142624448716  0.0000
  O1     O1        0.958982494785899    0.725042987319423    0.045504592687450  0.0000
  O1     O1        0.972215966685853    0.243971621331443    0.043432297443171  0.0000
  O1     O1        0.340215015415796    0.167960712712452    0.758496503994930  0.0000
  O3     O3        0.705490109638009    0.139616577280748    0.202004129463874  0.0000
  O1     O1        0.690340283391372    0.827900748761816    0.223401644219414  0.0000
  O1     O1        0.335929642558172    0.829051935187562    0.775215831242285  0.0000
  O1     O1        0.825265693494293    0.678576960316724    0.748315023146774  0.0000
  O1     O1        0.190756299259329    0.638949953555849    0.188675010872419  0.0000
  O1     O1        0.196635064679695    0.317395241197585    0.231356533544644  0.0000
  O1     O1        0.850352511437226    0.340915470439972    0.792092815008825  0.0000
  O1     O1        0.372286143870040    0.341655391146975    0.823063750416136  0.0000
  O1     O1        0.699749405241075    0.319928049198321    0.210648967937735  0.0000
  O3     O3        0.676492104414964    0.648491778441175    0.195876388944189  0.0000
  O1     O1        0.337025336458237    0.653620604829151    0.791588650470026  0.0000
  O1     O1        0.852698519163732    0.848069174506281    0.822673495113184  0.0000
  O3     O3        0.183284356713998    0.815829357547539    0.224766098718931  0.0000
  O1     O1        0.187358872593013    0.140851014380482    0.178497370502511  0.0000
  O1     O1        0.836712293016921    0.166941590075171    0.760165713234519  0.0000
  O1     O1        0.203137644924352    0.249784969162974    0.945855384883238  0.0000
  O1     O1        0.697189680250742    0.239542903616183    0.941066566295572  0.0000
  O1     O1        0.686282588586570    0.748213362973058    0.947169885036733  0.0000
  O1     O1        0.184473528379390    0.745890188302931    0.943980756900762  0.0000
  O1     O1        0.459370634977361    0.375524476612143    0.259266738369852  0.0000
  O1     O1        0.591959247043349    0.406299173110809    0.741887858147964  0.0000
  O1     O1        0.575688380077928    0.604697397914217    0.725453577364009  0.0000
  O3     O3        0.456541909023990    0.584370152748197    0.247244082947928  0.0000
  O3     O3        0.958262453525326    0.876465163200840    0.262283342050446  0.0000
  O1     O1        0.081075084547693    0.900877764453619    0.742778926672770  0.0000
  O1     O1        0.080648875981923    0.103637067503790    0.723004304070705  0.0000
  O3     O3        0.951098585223819    0.084718568435751    0.240629371532643  0.0000
  O1     O1        0.370291403171066    0.348222523861163    0.514861170706007  0.0000
  O1     O1        0.689924000589326    0.363487180518018    0.499317278814058  0.0000
  O3     O3        0.660336978960040    0.623703748941694    0.467775523535939  0.0000
  O1     O1        0.347622892752128    0.633062942618487    0.487900330293279  0.0000
  O1     O1        0.852501418831791    0.853361168415860    0.513453146268234  0.0000
  O3     O3        0.163767806525409    0.860218403939853    0.492052289783623  0.0000
  O1     O1        0.182651406563283    0.122704621038429    0.472731836228527  0.0000
  O3     O3        0.867770091456411    0.129649152337548    0.472826624934077  0.0000
  O1     O1        0.266514123155153    0.483560271599878    0.327054574361411  0.0000
  O1     O1        0.790824803183142    0.506037578276157    0.679038921971564  0.0000
  O3     O3        0.773645856202369    0.991845695266236    0.326615053720730  0.0000
  O1     O1        0.285291403265645    0.996963710456791    0.678456235738517  0.0000
  O1     O1        0.352130632896732    0.495246142407616    0.671794520761876  0.0000
  O3     O3        0.674511500947546    0.492454133400914    0.293547364929318  0.0000
  O1     O1        0.851067810752420    0.000797007955842    0.677077754453249  0.0000
  O3     O3        0.172116592599411    0.976075307032440    0.295155102090467  0.0000
