data_c00079.vasp
_audit_creation_method             Generated by GULP
_audit_author_name                 Salvador R. G. Balestra
_symmetry_space_group_name_H-M     'P 1             '
_symmetry_Int_Tables_number        1

loop_
_symmetry_equiv_pos_site_id
_symmetry_equiv_pos_as_xyz
_cell_length_a                       10.2533
_cell_length_b                       15.8470
_cell_length_c                        9.2745
_cell_angle_alpha                   90.2370
_cell_angle_beta                   105.0776
_cell_angle_gamma                   88.8926

loop_
_atom_site_label
_atom_site_type_symbol
_atom_site_fract_x
_atom_site_fract_y
_atom_site_fract_z
_atom_site_charge
  Ge     Ge        0.351599999999962    0.244500000000016    0.893900000000031  0.0000
  Ge     Ge        0.654177800872886    0.262030521442773    0.100405581567271  0.0000
  Ge     Ge        0.648734713328118    0.757841318762360    0.110847019980522  0.0000
  Ge     Ge        0.349224215812056    0.752848845544682    0.891327174248901  0.0000
  Ge     Ge        0.849588439581914    0.745859227369419    0.901490387137134  0.0000
  Ge     Ge        0.148654169893350    0.760105957808151    0.109651327638093  0.0000
  Ge     Ge        0.148057901003129    0.254068426734288    0.106022176155819  0.0000
  Ge     Ge        0.266250147010676    0.408488496444637    0.317956451754368  0.0000
  Ge     Ge        0.675431509144735    0.395694611058540    0.672695194689260  0.0000
  Ge     Ge        0.671635046777559    0.599560558095966    0.687999197485005  0.0000
  Ge     Ge        0.268088711542792    0.609913960699888    0.338788873380658  0.0000
  Ge     Ge        0.764477427741029    0.911671690818292    0.321380563387887  0.0000
  Ge     Ge        0.171963333686457    0.895425892030058    0.659982350210593  0.0000
  Ge     Ge        0.181023055157240    0.097868277679823    0.679352050310224  0.0000
  Ge     Ge        0.770467728892871    0.113397951966791    0.331971494476393  0.0000
  Ge     Ge        0.363213259481308    0.398754587771562    0.682695538641827  0.0000
  Ge     Ge        0.581959297719383    0.407626096146406    0.316006552384716  0.0000
  Ge     Ge        0.583566104360222    0.611724595879574    0.334364121804597  0.0000
  Ge     Ge        0.861242107952066    0.900075660435641    0.683683656832349  0.0000
  Ge     Ge        0.082165431522809    0.106697091623830    0.321762780405260  0.0000
  Ge     Ge        0.868946063817991    0.102546074904035    0.696771161348629  0.0000
  Si     Si        0.854253482785642    0.257986027510788    0.895188512646455  0.0000
  Si     Si        0.361968404148757    0.596230512075902    0.695169753641780  0.0000
  Si     Si        0.072280366150040    0.907915861162037    0.310552120718123  0.0000
  O1     O1        0.525086416643453    0.245293171603000    0.946224005255940  0.0000
  O1     O1        0.522413122666044    0.759141577378605    0.949477812449135  0.0000
  O1     O1        0.023390431354576    0.741629954746786    0.951516780669199  0.0000
  O3     O3        0.017077299313729    0.258663484985501    0.945740702396002  0.0000
  O1     O1        0.306780668215762    0.153895143766068    0.794072165381777  0.0000
  O1     O1        0.656091132026145    0.184461957957071    0.230294829999924  0.0000
  O1     O1        0.645371797079949    0.848491866797018    0.213082669939311  0.0000
  O1     O1        0.295464997695527    0.829139608927992    0.758701539793613  0.0000
  O1     O1        0.791931271743702    0.653520562995312    0.813073138670599  0.0000
  O1     O1        0.154948320233762    0.682826147422980    0.240843232308340  0.0000
  O1     O1        0.147810307559243    0.342111920774978    0.214628087690541  0.0000
  O3     O3        0.804526434178714    0.334839146427081    0.781790457524082  0.0000
  O1     O1        0.293427047312735    0.332074729309592    0.783790547757689  0.0000
  O1     O1        0.644521210860693    0.357253275942915    0.184915002176247  0.0000
  O1     O1        0.648723679674870    0.670129186010263    0.217476232570531  0.0000
  O3     O3        0.305380252215521    0.655517805999133    0.806207677399728  0.0000
  O1     O1        0.795705797138019    0.831771430889174    0.786972500405264  0.0000
  O3     O3        0.126220709016821    0.856579717915602    0.188474010917073  0.0000
  O1     O1        0.151910388590661    0.163186805285398    0.206401721844596  0.0000
  O3     O3        0.807129576368721    0.170130601673810    0.810895316646608  0.0000
  O1     O1        0.295861547407140    0.250534483320969    0.051542703438393  0.0000
  O3     O3        0.802650693018216    0.264432946126380    0.043508094917921  0.0000
  O1     O1        0.799696160237324    0.756055412689936    0.062531037550772  0.0000
  O1     O1        0.293984289187210    0.763796293205974    0.049511713103046  0.0000
  O1     O1        0.408585167204139    0.409494941306543    0.253065382828288  0.0000
  O1     O1        0.536533169590545    0.391216757724763    0.743072398524486  0.0000
  O3     O3        0.524710317158758    0.594061823650218    0.746855819700309  0.0000
  O1     O1        0.410273443230482    0.615320480191680    0.274182108627025  0.0000
  O3     O3        0.910059008478709    0.914920245423769    0.258962351536111  0.0000
  O1     O1        0.035303532962952    0.893369408235474    0.734606784234062  0.0000
  O1     O1        0.042109056934696    0.097281968728967    0.750605579678101  0.0000
  O1     O1        0.910135018057518    0.116450510262596    0.262015563682969  0.0000
  O1     O1        0.314968831654237    0.371704374770912    0.498112742123865  0.0000
  O1     O1        0.632795132264691    0.361624092760188    0.490314436209679  0.0000
  O1     O1        0.636050508470407    0.646865182666724    0.515720325577891  0.0000
  O3     O3        0.314449784534094    0.632858454132431    0.527506412825256  0.0000
  O1     O1        0.805327196458091    0.872677802594902    0.499342367168724  0.0000
  O3     O3        0.119459356219934    0.864966982438224    0.473581231258744  0.0000
  O1     O1        0.136507847300853    0.140984966443783    0.503152241382286  0.0000
  O1     O1        0.818388344328233    0.140073601673777    0.517272353776401  0.0000
  O1     O1        0.203509230268126    0.510212354481812    0.313514258533991  0.0000
  O1     O1        0.728381296982497    0.497804740673550    0.676640054697279  0.0000
  O1     O1        0.705072484134203    0.013760791558412    0.318082480034789  0.0000
  O1     O1        0.234787114047684    0.995187281195365    0.670691927314608  0.0000
  O3     O3        0.308482090236124    0.502056260973029    0.698818461113489  0.0000
  O1     O1        0.638874294809894    0.509028815557745    0.333873409548174  0.0000
  O1     O1        0.810206547708275    0.002542566800517    0.705571435823750  0.0000
  O3     O3        0.131669826895907    0.001484578976548    0.321922076605481  0.0000
