data_c00046.vasp
_audit_creation_method             Generated by GULP
_audit_author_name                 Salvador R. G. Balestra
_symmetry_space_group_name_H-M     'P 1             '
_symmetry_Int_Tables_number        1

loop_
_symmetry_equiv_pos_site_id
_symmetry_equiv_pos_as_xyz
_cell_length_a                       10.3202
_cell_length_b                       15.7787
_cell_length_c                        9.2555
_cell_angle_alpha                   89.3688
_cell_angle_beta                   105.7092
_cell_angle_gamma                   89.3900

loop_
_atom_site_label
_atom_site_type_symbol
_atom_site_fract_x
_atom_site_fract_y
_atom_site_fract_z
_atom_site_charge
  Ge     Ge        0.351599999999962    0.244500000000016    0.893900000000031  0.0000
  Ge     Ge        0.648098910926102    0.269079537879028    0.101923708340206  0.0000
  Ge     Ge        0.658694969540992    0.769346215390759    0.101777880919491  0.0000
  Ge     Ge        0.359619808910044    0.763383376458889    0.882947288154685  0.0000
  Ge     Ge        0.864407023883389    0.744968748084949    0.900867465305242  0.0000
  Ge     Ge        0.165971529245500    0.772891639017494    0.105398960368351  0.0000
  Ge     Ge        0.158899666514084    0.268370135810167    0.111909440028141  0.0000
  Ge     Ge        0.854736100892856    0.258231722456753    0.897902451166419  0.0000
  Ge     Ge        0.261896669561508    0.427294195856851    0.313688540657191  0.0000
  Ge     Ge        0.674977862943527    0.397049837306136    0.658674464653559  0.0000
  Ge     Ge        0.681678981734434    0.602680421398866    0.689686523964161  0.0000
  Ge     Ge        0.282618897471444    0.624969354674707    0.342343748335912  0.0000
  Ge     Ge        0.777473433684064    0.922883987116462    0.309886670671015  0.0000
  Ge     Ge        0.784251351442878    0.125060284288632    0.342736787363215  0.0000
  Ge     Ge        0.365709477177960    0.402119503729135    0.678602012581366  0.0000
  Ge     Ge        0.576933752256688    0.421374925320323    0.302920360064200  0.0000
  Ge     Ge        0.593273939006427    0.622834908116751    0.332541056504663  0.0000
  Ge     Ge        0.875647971230279    0.895604352571612    0.670714927025080  0.0000
  Ge     Ge        0.092773421359025    0.923591525481222    0.307585864808023  0.0000
  Ge     Ge        0.098236195439928    0.123830714873697    0.343654381287907  0.0000
  Ge     Ge        0.876170693357335    0.099936610505127    0.704687398559911  0.0000
  Si     Si        0.178553305947922    0.902352335764624    0.660866918327697  0.0000
  Si     Si        0.178020689494188    0.100285176565574    0.696229881681543  0.0000
  Si     Si        0.379792032868266    0.601563550905546    0.702464657963818  0.0000
  O1     O1        0.524511667109533    0.239762594863153    0.946982372612813  0.0000
  O1     O1        0.532137991843282    0.769474083417125    0.938394787971592  0.0000
  O1     O1        0.037202871378899    0.745111620121884    0.954820920673509  0.0000
  O1     O1        0.028217063790340    0.259291640095799    0.955896528056141  0.0000
  O3     O3        0.299180494084889    0.149527996513154    0.805754175698954  0.0000
  O1     O1        0.665938241397058    0.196129349165574    0.245034227379021  0.0000
  O1     O1        0.656820328373958    0.863310946927552    0.193828515089637  0.0000
  O3     O3        0.301233319570950    0.845073268288408    0.755056961206174  0.0000
  O1     O1        0.808682837607540    0.650536940544300    0.818809801332286  0.0000
  O1     O1        0.175072626528431    0.703276688101180    0.252918848109972  0.0000
  O1     O1        0.149574308439557    0.365376846973663    0.192772392645924  0.0000
  O1     O1        0.803327254424611    0.333843859689605    0.759754444474664  0.0000
  O1     O1        0.297654531454212    0.331708536693904    0.778059860730003  0.0000
  O1     O1        0.617833262177642    0.367628341758361    0.161846444147010  0.0000
  O1     O1        0.658874249905011    0.685531119298801    0.220190006229860  0.0000
  O3     O3        0.317825577423175    0.664929187187899    0.801613768177793  0.0000
  O1     O1        0.809353313259121    0.826188230273718    0.771519930618790  0.0000
  O1     O1        0.148668281946306    0.871077140985484    0.175440202766632  0.0000
  O1     O1        0.171514624531947    0.194056491075096    0.251710956615207  0.0000
  O1     O1        0.813365898251045    0.158928034408532    0.824261734339283  0.0000
  O1     O1        0.304299259879932    0.257615111827934    0.055631733785155  0.0000
  O1     O1        0.795993212925782    0.274996090391829    0.049982130215539  0.0000
  O1     O1        0.809792522917953    0.762162818122795    0.056275427828811  0.0000
  O1     O1        0.308569096669115    0.771921970817527    0.042794030492165  0.0000
  O1     O1        0.405929776949153    0.435012445310888    0.255956246133890  0.0000
  O1     O1        0.537769551125470    0.388215638026074    0.730179622695143  0.0000
  O3     O3        0.541788829172745    0.599586871157690    0.760274333201330  0.0000
  O1     O1        0.420540975799613    0.628586357830242    0.272057738243588  0.0000
  O1     O1        0.920577097819129    0.928131168532715    0.249062833029269  0.0000
  O3     O3        0.051087511132040    0.887622177049801    0.726179548274775  0.0000
  O3     O3        0.051414437764218    0.101511732649169    0.764857577336969  0.0000
  O1     O1        0.925638718741739    0.130143431950544    0.277755355556279  0.0000
  O1     O1        0.302654925673659    0.383313832482131    0.491433464343176  0.0000
  O1     O1        0.629715181499918    0.368657014634065    0.473010956018629  0.0000
  O1     O1        0.646710340038678    0.652791688979707    0.517810883126686  0.0000
  O3     O3        0.342141152822775    0.638346974237696    0.533278656322432  0.0000
  O1     O1        0.820522540325415    0.874533953346637    0.484348948418634  0.0000
  O3     O3        0.142543307115030    0.877879801449847    0.486619531776899  0.0000
  O3     O3        0.139183583873030    0.145652792018975    0.533820264545076  0.0000
  O1     O1        0.825711876352475    0.146870814348327    0.530037914682787  0.0000
  O1     O1        0.202602782848301    0.529231333650998    0.314211135580475  0.0000
  O1     O1        0.727245944239875    0.500055633103700    0.667162982986270  0.0000
  O1     O1        0.720515258671939    0.024115164274810    0.320994149393630  0.0000
  O2     O2        0.216855429861819    0.002173625807856    0.673105929608017  0.0000
  O3     O3        0.325211831140766    0.507076008594104    0.709045670478687  0.0000
  O1     O1        0.646496050201105    0.520215244249228    0.319871962765873  0.0000
  O1     O1        0.826268294775906    0.997176775511721    0.700646791734221  0.0000
  O1     O1        0.153093325659544    0.024394131441538    0.314754885966794  0.0000
