data_c00037.vasp
_audit_creation_method             Generated by GULP
_audit_author_name                 Salvador R. G. Balestra
_symmetry_space_group_name_H-M     'P 1             '
_symmetry_Int_Tables_number        1

loop_
_symmetry_equiv_pos_site_id
_symmetry_equiv_pos_as_xyz
_cell_length_a                       10.2986
_cell_length_b                       15.8366
_cell_length_c                        9.2879
_cell_angle_alpha                   90.8720
_cell_angle_beta                   105.4943
_cell_angle_gamma                   89.9353

loop_
_atom_site_label
_atom_site_type_symbol
_atom_site_fract_x
_atom_site_fract_y
_atom_site_fract_z
_atom_site_charge
  Ge     Ge        0.351599999999962    0.244500000000016    0.893900000000031  0.0000
  Ge     Ge        0.655374158208156    0.242251883299402    0.102458098530015  0.0000
  Ge     Ge        0.650053555204511    0.745844947955000    0.103663079335833  0.0000
  Ge     Ge        0.349527810122843    0.766151667835395    0.896955048521867  0.0000
  Ge     Ge        0.852147825881031    0.752395038664818    0.894616443041716  0.0000
  Ge     Ge        0.152317814958438    0.751645204057357    0.112056223689608  0.0000
  Ge     Ge        0.155174461964153    0.240778414603136    0.108476467755592  0.0000
  Ge     Ge        0.857631459107336    0.264709036752273    0.893296494793738  0.0000
  Ge     Ge        0.271471772449532    0.392930450730009    0.335828769706142  0.0000
  Ge     Ge        0.679677071048948    0.407140519410669    0.682552113735914  0.0000
  Ge     Ge        0.672001381304244    0.611842701112787    0.663425533002004  0.0000
  Ge     Ge        0.264266506782066    0.593796716096989    0.316968238672240  0.0000
  Ge     Ge        0.777442234429776    0.895422089530078    0.332633340894633  0.0000
  Ge     Ge        0.173381663461939    0.910182974877289    0.682151240265668  0.0000
  Ge     Ge        0.369920264133866    0.406266949775029    0.701724298488208  0.0000
  Ge     Ge        0.584450642158681    0.392140378820817    0.325684304691533  0.0000
  Ge     Ge        0.576186280181632    0.595076352020175    0.307212311500913  0.0000
  Ge     Ge        0.362998760790240    0.609329003895051    0.683496744031578  0.0000
  Ge     Ge        0.863483997798249    0.910119404591636    0.696124840439223  0.0000
  Ge     Ge        0.078494241657261    0.093373567455054    0.313652519515217  0.0000
  Ge     Ge        0.862538990336284    0.111464731366701    0.668169814027504  0.0000
  Si     Si        0.169881168634956    0.109320183577958    0.662253296565121  0.0000
  Si     Si        0.771691983835875    0.093840919300840    0.313031300064647  0.0000
  Si     Si        0.083492135301064    0.894391287380640    0.331278193077791  0.0000
  O1     O1        0.524463622433885    0.234383865209930    0.944618546230067  0.0000
  O1     O1        0.522737510262885    0.765712762511442    0.947913723756221  0.0000
  O1     O1        0.025801451921201    0.751528846007344    0.950816440416644  0.0000
  O1     O1        0.030270315853965    0.259789303627601    0.949450231424245  0.0000
  O3     O3        0.287058568978718    0.167500489306454    0.760997188889753  0.0000
  O3     O3        0.659779900550019    0.152124099283229    0.208430541224692  0.0000
  O1     O1        0.659478418653541    0.827277726572148    0.231431490998099  0.0000
  O1     O1        0.302253259983053    0.856135897061455    0.795857466408553  0.0000
  O1     O1        0.801623443450143    0.672364152775634    0.765731456058746  0.0000
  O1     O1        0.148876751483694    0.660003363765246    0.207729598924393  0.0000
  O1     O1        0.158173331382831    0.319912687465610    0.237826558979830  0.0000
  O1     O1        0.810812824964573    0.358047268568536    0.804821060603750  0.0000
  O1     O1        0.309902314879096    0.342061529636756    0.815794077299123  0.0000
  O1     O1        0.646141782416364    0.330346291468883    0.207954728692890  0.0000
  O1     O1        0.632097938502568    0.650223508915973    0.178930772361935  0.0000
  O1     O1        0.293715701043446    0.678772787784482    0.784146701054941  0.0000
  O1     O1        0.800814221693031    0.847383755883548    0.809731764189253  0.0000
  O3     O3        0.151234433936809    0.836475278002246    0.230594144959629  0.0000
  O1     O1        0.138607823935436    0.145011695976712    0.186427067186156  0.0000
  O1     O1        0.797789286588923    0.183935579764116    0.765492753006498  0.0000
  O1     O1        0.302361916853962    0.235971786564693    0.054496767868838  0.0000
  O1     O1        0.801927946824862    0.252596664124948    0.049156498056852  0.0000
  O1     O1        0.797589319571707    0.740504509924090    0.050674585038599  0.0000
  O1     O1        0.299254701597239    0.761265189542329    0.058022670414424  0.0000
  O1     O1        0.411290536853740    0.390964671092782    0.268039923920087  0.0000
  O1     O1        0.543349525621066    0.406023173886456    0.756298124293111  0.0000
  O1     O1        0.536760896041435    0.616220886722133    0.739105516623811  0.0000
  O1     O1        0.403453075825575    0.589774838510247    0.248522970985968  0.0000
  O3     O3        0.921685656217574    0.888511693407615    0.270180394748948  0.0000
  O1     O1        0.037024919812706    0.906900209655579    0.753700949688000  0.0000
  O3     O3        0.037772658587069    0.114272540020027    0.723711799440091  0.0000
  O3     O3        0.904752493279361    0.094543130062329    0.253059649524867  0.0000
  O1     O1        0.319634909835682    0.368340791685617    0.521123686303706  0.0000
  O1     O1        0.637334401019752    0.359768154198525    0.508034536254627  0.0000
  O1     O1        0.623863826084418    0.643431085637299    0.480479948696187  0.0000
  O1     O1        0.312446850504990    0.632295789810591    0.497215853090277  0.0000
  O1     O1        0.812848081548857    0.870284239790298    0.516526080784270  0.0000
  O3     O3        0.127285668236683    0.866140081982930    0.503217151070549  0.0000
  O3     O3        0.131902067083190    0.138716492199984    0.490491022935839  0.0000
  O3     O3        0.810949749392774    0.132481525645150    0.480235827011367  0.0000
  O1     O1        0.203079147520030    0.492846772291695    0.316936490060865  0.0000
  O1     O1        0.725107636754821    0.509133589107552    0.662005615030648  0.0000
  O3     O3        0.718837249216547    0.998687247648701    0.313963762227311  0.0000
  O3     O3        0.222098421309589    0.013513810122216    0.669837574923828  0.0000
  O1     O1        0.314188210753906    0.507920502672109    0.709196574423542  0.0000
  O1     O1        0.638663989228450    0.494319547951995    0.317533833408313  0.0000
  O1     O1        0.810927654506357    0.012424360052827    0.701286709012007  0.0000
  O3     O3        0.132114015903996    0.990051635828977    0.322037126975381  0.0000
