data_c00003.vasp
_audit_creation_method             Generated by GULP
_audit_author_name                 Salvador R. G. Balestra
_symmetry_space_group_name_H-M     'P 1             '
_symmetry_Int_Tables_number        1

loop_
_symmetry_equiv_pos_site_id
_symmetry_equiv_pos_as_xyz
_cell_length_a                       10.3001
_cell_length_b                       15.8316
_cell_length_c                        9.2590
_cell_angle_alpha                   90.7031
_cell_angle_beta                   104.7677
_cell_angle_gamma                   89.1348

loop_
_atom_site_label
_atom_site_type_symbol
_atom_site_fract_x
_atom_site_fract_y
_atom_site_fract_z
_atom_site_charge
  Ge     Ge        0.351599999999962    0.244500000000016    0.893900000000031  0.0000
  Ge     Ge        0.651975074828091    0.226769746529583    0.104495510370339  0.0000
  Ge     Ge        0.726890463005963    0.735242922745476    0.104181580477674  0.0000
  Ge     Ge        0.430334303617236    0.747529689962249    0.886351599785174  0.0000
  Ge     Ge        0.930070577553664    0.729266879789872    0.895839822155148  0.0000
  Ge     Ge        0.227860015321431    0.746557082120791    0.103731472697749  0.0000
  Ge     Ge        0.148850918170446    0.248844101393546    0.104878295726493  0.0000
  Ge     Ge        0.854095584594678    0.229495970020987    0.891750236301876  0.0000
  Ge     Ge        0.326029909615725    0.393625163456338    0.324200605009588  0.0000
  Ge     Ge        0.733661453322772    0.381495138630245    0.670865073318791  0.0000
  Ge     Ge        0.747691694475594    0.585679340286329    0.673724598282202  0.0000
  Ge     Ge        0.343408634891337    0.595914034985449    0.331977590331031  0.0000
  Ge     Ge        0.846731356670767    0.884939292597864    0.329044791213680  0.0000
  Ge     Ge        0.253113871598246    0.889244972621755    0.661935470149956  0.0000
  Ge     Ge        0.237183599316423    0.092243556973528    0.668275678073356  0.0000
  Ge     Ge        0.829769379082555    0.087728893274845    0.332872727469376  0.0000
  Ge     Ge        0.426411258918328    0.392342922498527    0.686074015350700  0.0000
  Ge     Ge        0.637583638142782    0.384806313726950    0.310664134191865  0.0000
  Ge     Ge        0.653731515363828    0.587877339028667    0.315636759095482  0.0000
  Ge     Ge        0.946532721960902    0.883706432930345    0.686125565581348  0.0000
  Ge     Ge        0.137300217732586    0.092943435632107    0.310209488842224  0.0000
  Si     Si        0.441392122118475    0.591475861926920    0.684837620558680  0.0000
  Si     Si        0.149125307799712    0.893465711480749    0.308147717239092  0.0000
  Si     Si        0.933939164670733    0.083404081036826    0.685603236012189  0.0000
  O1     O1        0.478922013344826    0.229218118107682    0.050440679800566  0.0000
  O1     O1        0.602487283339052    0.750302745834388    0.944773030173296  0.0000
  O1     O1        0.102815502901340    0.726251541194386    0.946934728392723  0.0000
  O1     O1        0.976214554159571    0.247893344593653    0.051847307902137  0.0000
  O1     O1        0.349809889806025    0.160614999063482    0.773825956642585  0.0000
  O1     O1        0.699246425592006    0.146602499243633    0.231095398411822  0.0000
  O1     O1        0.729658816281734    0.818743762365564    0.224767747879983  0.0000
  O1     O1        0.381653910101554    0.828197775501081    0.762199512302741  0.0000
  O1     O1        0.872905129072793    0.641760270160064    0.788501106254913  0.0000
  O1     O1        0.233302123053189    0.668490223469965    0.232402578856014  0.0000
  O1     O1        0.198158403129262    0.334961160442747    0.218434286805433  0.0000
  O1     O1        0.849281030789569    0.312060022011448    0.772500556195926  0.0000
  O1     O1        0.358828262625059    0.338718534710916    0.806204603823459  0.0000
  O1     O1        0.702245721794375    0.320598361029699    0.196358151688087  0.0000
  O1     O1        0.715119665157905    0.641793196122106    0.190468623449894  0.0000
  O3     O3        0.383318878593337    0.652383981387651    0.792997688368877  0.0000
  O1     O1        0.880670452521938    0.820847978773751    0.796790670321262  0.0000
  O3     O3        0.206777672759294    0.842055858996302    0.188542617048398  0.0000
  O1     O1        0.202472692171781    0.156506099151777    0.200084286421137  0.0000
  O3     O3        0.876096028978801    0.135434697519603    0.803912326243327  0.0000
  O1     O1        0.203129473151083    0.250679180708965    0.945743551674423  0.0000
  O1     O1        0.707504716290844    0.217445834049153    0.946159151339074  0.0000
  O1     O1        0.877228224526889    0.730837674261088    0.055804580137602  0.0000
  O1     O1        0.372561121342269    0.753749424989710    0.044152809223800  0.0000
  O1     O1        0.464186924845882    0.388444568239751    0.252447887915197  0.0000
  O1     O1        0.597163487122335    0.381870622888927    0.746726828669288  0.0000
  O3     O3        0.603678392906750    0.588253610210047    0.738442558957850  0.0000
  O1     O1        0.481819898246638    0.593350997901759    0.260344655516867  0.0000
  O3     O3        0.987860475470460    0.891379935983807    0.259278942295805  0.0000
  O1     O1        0.119352036126489    0.879299530571578    0.739455798281338  0.0000
  O3     O3        0.095153888425223    0.085269767503440    0.735993728206999  0.0000
  O1     O1        0.964389863681551    0.097566070105678    0.256908607607692  0.0000
  O1     O1        0.369108252450926    0.357742151367980    0.505061484346228  0.0000
  O1     O1        0.679323014001182    0.346690996018414    0.489867918842760  0.0000
  O1     O1        0.713261110749309    0.624623657357869    0.495682906906754  0.0000
  O3     O3        0.399737344747064    0.627098086433287    0.517092331485427  0.0000
  O1     O1        0.895467202462950    0.846354430712463    0.506205255748927  0.0000
  O3     O3        0.203621680077064    0.857955466213664    0.475410074298155  0.0000
  O1     O1        0.190052933018862    0.129749452179962    0.490390700761666  0.0000
  O3     O3        0.879915489012832    0.119900281666715    0.519085642699750  0.0000
  O1     O1        0.274053971661620    0.497920403283056    0.321259963238524  0.0000
  O1     O1        0.796930655969907    0.481184124411018    0.673557217747555  0.0000
  O1     O1        0.779907129299607    0.984647170221985    0.326160960614724  0.0000
  O1     O1        0.304325567604296    0.992317865912288    0.672321260466066  0.0000
  O3     O3        0.382219449874184    0.498781208398887    0.686339699198030  0.0000
  O1     O1        0.702275946208386    0.483639505422977    0.313076460532745  0.0000
  O3     O3        0.888096246332982    0.986583225030053    0.685907733175951  0.0000
  O3     O3        0.195227256290324    0.990197951899207    0.307683606321074  0.0000
