data_c00051.vasp
_audit_creation_method             Generated by GULP
_audit_author_name                 Salvador R. G. Balestra
_symmetry_space_group_name_H-M     'P 1             '
_symmetry_Int_Tables_number        1

loop_
_symmetry_equiv_pos_site_id
_symmetry_equiv_pos_as_xyz
_cell_length_a                       10.3300
_cell_length_b                       15.7910
_cell_length_c                        9.2429
_cell_angle_alpha                   90.8787
_cell_angle_beta                   105.2292
_cell_angle_gamma                   89.8117

loop_
_atom_site_label
_atom_site_type_symbol
_atom_site_fract_x
_atom_site_fract_y
_atom_site_fract_z
_atom_site_charge
  Ge     Ge        0.351599999999962    0.244500000000016    0.893900000000031  0.0000
  Ge     Ge        0.654995133253106    0.237754416899703    0.105634760673337  0.0000
  Ge     Ge        0.641669593580323    0.740522702509028    0.099765054230061  0.0000
  Ge     Ge        0.344762017795910    0.762615533129472    0.892845594821399  0.0000
  Ge     Ge        0.849850133516127    0.747008343617597    0.896551865976559  0.0000
  Ge     Ge        0.150895257020507    0.740665881198873    0.112383495009712  0.0000
  Ge     Ge        0.146392427383470    0.237948621748988    0.100430192179941  0.0000
  Ge     Ge        0.850924164662807    0.262940152524676    0.890497439873104  0.0000
  Ge     Ge        0.268783400811341    0.388025989800113    0.332543290176417  0.0000
  Ge     Ge        0.671595241121437    0.407099180315635    0.684059788058313  0.0000
  Ge     Ge        0.664626786927267    0.611510207748471    0.656393940738235  0.0000
  Ge     Ge        0.770479397217557    0.887865098070786    0.335089277699151  0.0000
  Ge     Ge        0.169959669860186    0.906520281750101    0.676578873796469  0.0000
  Ge     Ge        0.168324280283827    0.109359352552179    0.652250570487833  0.0000
  Ge     Ge        0.360597624605815    0.406182058810799    0.699301532749348  0.0000
  Ge     Ge        0.580955607314648    0.386775449813830    0.327127801774513  0.0000
  Ge     Ge        0.566014284395282    0.590332837655170    0.301981883577829  0.0000
  Ge     Ge        0.354979372592398    0.607364686407712    0.673092312165756  0.0000
  Ge     Ge        0.860400140579562    0.907775035180133    0.699133336450326  0.0000
  Ge     Ge        0.065812859359974    0.087043744784208    0.296433202909835  0.0000
  Ge     Ge        0.858755344499536    0.108787106573645    0.667306329287689  0.0000
  Si     Si        0.262522130511896    0.585742327871432    0.314183741952108  0.0000
  Si     Si        0.764740687667387    0.085524959892204    0.308586815565796  0.0000
  Si     Si        0.074948735625212    0.887018579336356    0.326322751593186  0.0000
  O1     O1        0.523929923964687    0.235848687061085    0.948404912061035  0.0000
  O1     O1        0.517074465210855    0.764778402432028    0.944140645625904  0.0000
  O1     O1        0.021977193525639    0.737175291381776    0.953474412447926  0.0000
  O1     O1        0.023134224620365    0.262133337802788    0.942762395211539  0.0000
  O1     O1        0.295403705327842    0.171681145465276    0.752530814851238  0.0000
  O3     O3        0.653534942794586    0.146387414688971    0.208662386185073  0.0000
  O1     O1        0.654054652250479    0.818559298791628    0.235025632397544  0.0000
  O1     O1        0.295743401115464    0.853956437613295    0.797669266417949  0.0000
  O1     O1        0.792593353944230    0.673029665426956    0.757195750941093  0.0000
  O3     O3        0.154521581592065    0.648090229462065    0.212477793776161  0.0000
  O1     O1        0.153915716664479    0.316158304583242    0.234409664089816  0.0000
  O1     O1        0.799116387773048    0.358280412924076    0.810976001794061  0.0000
  O1     O1        0.306216429292220    0.343224602925498    0.819721110383642  0.0000
  O1     O1        0.651670882756249    0.324857083877419    0.216726566632979  0.0000
  O1     O1        0.611338978853570    0.643418019663536    0.164136738790593  0.0000
  O1     O1        0.286273302618111    0.679237589288404    0.770233320319087  0.0000
  O1     O1        0.807120024766987    0.845869286360218    0.821915150715212  0.0000
  O3     O3        0.140080653954055    0.827326325890875    0.224305158637519  0.0000
  O1     O1        0.119700395698176    0.139329851680943    0.163699734322959  0.0000
  O1     O1        0.790791926496884    0.184322944533722    0.757783356880053  0.0000
  O1     O1        0.294408910101160    0.230236890969798    0.048879874147944  0.0000
  O1     O1        0.800373549507309    0.245121601301165    0.049550827727927  0.0000
  O1     O1        0.789925977425205    0.732564117568668    0.049446457624654  0.0000
  O1     O1        0.295006562809358    0.752871012233604    0.055018676922816  0.0000
  O1     O1        0.408713633468489    0.379777895912602    0.266189484871220  0.0000
  O1     O1        0.533066374503306    0.409037292638063    0.753306398673889  0.0000
  O1     O1        0.527431659078370    0.616654325658579    0.729141970014183  0.0000
  O3     O3        0.392794564177930    0.580292462599780    0.250283377331712  0.0000
  O3     O3        0.913618618826781    0.880721859672123    0.270843007840795  0.0000
  O1     O1        0.032947010364743    0.908604361333303    0.748089732896434  0.0000
  O1     O1        0.031373002871770    0.115342104547889    0.725061439984683  0.0000
  O3     O3        0.892599811606742    0.083376987743609    0.239717063336930  0.0000
  O1     O1        0.309718326230622    0.365522879839166    0.519434597811435  0.0000
  O1     O1        0.631358600015789    0.356867834867619    0.511429466917663  0.0000
  O1     O1        0.619873949213481    0.641925724500386    0.471617529696400  0.0000
  O3     O3        0.308174390302029    0.624128056896453    0.482131108358202  0.0000
  O1     O1        0.804792292641537    0.865278898577582    0.520811037904712  0.0000
  O3     O3        0.122189364980581    0.859468017143033    0.499101881255625  0.0000
  O1     O1        0.123382414144583    0.137570891193948    0.466442132389256  0.0000
  O3     O3        0.815020872839354    0.124032794602507    0.476204103543886  0.0000
  O3     O3        0.205244637325884    0.491137570995166    0.314192197347931  0.0000
  O1     O1        0.718559118566273    0.508494345117444    0.659485760124490  0.0000
  O3     O3        0.709347140182432    0.991144077377965    0.312858116522637  0.0000
  O1     O1        0.224477450378698    0.006802227889690    0.660738514632956  0.0000
  O1     O1        0.303838290358952    0.507861198417997    0.705625199207174  0.0000
  O1     O1        0.629887490187618    0.489797980441477    0.314770436524458  0.0000
  O1     O1        0.806029799639925    0.010166384233247    0.703678859818846  0.0000
  O3     O3        0.121568038121961    0.983154500561853    0.313093213394472  0.0000
