data_c00035.vasp
_audit_creation_method             Generated by GULP
_audit_author_name                 Salvador R. G. Balestra
_symmetry_space_group_name_H-M     'P 1             '
_symmetry_Int_Tables_number        1

loop_
_symmetry_equiv_pos_site_id
_symmetry_equiv_pos_as_xyz
_cell_length_a                       10.3489
_cell_length_b                       15.8026
_cell_length_c                        9.2113
_cell_angle_alpha                   90.7129
_cell_angle_beta                   105.3466
_cell_angle_gamma                   90.1504

loop_
_atom_site_label
_atom_site_type_symbol
_atom_site_fract_x
_atom_site_fract_y
_atom_site_fract_z
_atom_site_charge
  Ge     Ge        0.351599999999962    0.244500000000016    0.893900000000031  0.0000
  Ge     Ge        0.644504087544007    0.229065687425523    0.114796816478870  0.0000
  Ge     Ge        0.622495308849517    0.742259333537454    0.110050638197022  0.0000
  Ge     Ge        0.321487857499326    0.738400647827653    0.895046286923809  0.0000
  Ge     Ge        0.823669215687092    0.752188253332081    0.898455430197394  0.0000
  Ge     Ge        0.119328341541458    0.717123556706958    0.103190248001808  0.0000
  Ge     Ge        0.148295451319203    0.233516197356703    0.103772861315103  0.0000
  Ge     Ge        0.843726103588813    0.251593189233822    0.899165642866916  0.0000
  Ge     Ge        0.326848651604476    0.370628801726720    0.350924870069711  0.0000
  Ge     Ge        0.726875132401739    0.405464536626018    0.686742742303534  0.0000
  Ge     Ge        0.701321959998301    0.604964396546787    0.662284776979986  0.0000
  Ge     Ge        0.299323434702511    0.572399556288473    0.309314818529071  0.0000
  Ge     Ge        0.804034570374864    0.882484132319579    0.340070667750877  0.0000
  Ge     Ge        0.212737043214501    0.896586209558796    0.689097914131511  0.0000
  Ge     Ge        0.216587699385573    0.098097120195160    0.658363509779957  0.0000
  Ge     Ge        0.606220493173764    0.578811871356054    0.295560616224698  0.0000
  Ge     Ge        0.394329064091762    0.592301224825248    0.672062848370935  0.0000
  Ge     Ge        0.903604370924797    0.902191355557355    0.701655013970851  0.0000
  Ge     Ge        0.110270225980948    0.872052322697470    0.323597921261777  0.0000
  Ge     Ge        0.117673201834848    0.074679683917643    0.294620415254985  0.0000
  Ge     Ge        0.905218253135180    0.103116709703187    0.667840158683664  0.0000
  Si     Si        0.816402011390572    0.082398181045034    0.314745041516668  0.0000
  Si     Si        0.421559332718259    0.394977089430390    0.699887778411931  0.0000
  Si     Si        0.630153684254981    0.381274836694794    0.331722822620170  0.0000
  O1     O1        0.473433891917897    0.219400272135239    0.052843875976319  0.0000
  O1     O1        0.449818664569611    0.740348092430821    0.055710882393789  0.0000
  O1     O1        0.947326779250333    0.720132660555556    0.050594843897323  0.0000
  O1     O1        0.977404783506267    0.249608495050177    0.052782070793277  0.0000
  O1     O1        0.335655056037855    0.167857319276707    0.757553943462768  0.0000
  O3     O3        0.701575600706467    0.136267044882132    0.205101904614746  0.0000
  O1     O1        0.672254581881130    0.821809274498456    0.242019393293180  0.0000
  O1     O1        0.327503419709058    0.829927851967122    0.797136575714166  0.0000
  O1     O1        0.811090193262648    0.681538216781817    0.751714642740930  0.0000
  O1     O1        0.168683225954523    0.622828631625072    0.189127893173041  0.0000
  O1     O1        0.215527596788582    0.297088725930332    0.257204979373464  0.0000
  O1     O1        0.842983474880169    0.345612154272462    0.805155342206131  0.0000
  O3     O3        0.381952516238428    0.342641972582342    0.829115282101216  0.0000
  O3     O3        0.691567477912707    0.315755844077614    0.234935278013481  0.0000
  O1     O1        0.671461710386398    0.644175387499541    0.186563946066733  0.0000
  O1     O1        0.319193075367634    0.651275843936579    0.781200182385552  0.0000
  O1     O1        0.851355837521531    0.850757048804792    0.838024795810658  0.0000
  O1     O1        0.178550887105665    0.798973180106806    0.229246228361368  0.0000
  O1     O1        0.172185654865870    0.130464763111096    0.164464897225177  0.0000
  O1     O1        0.838041715610871    0.171799852470180    0.770026416476943  0.0000
  O1     O1        0.205849469918232    0.252707356365361    0.950669444609004  0.0000
  O1     O1        0.699761255346897    0.243288418304503    0.957893438863262  0.0000
  O1     O1        0.677540098760650    0.757241506915093    0.953499087320637  0.0000
  O1     O1        0.172806725842266    0.732172057854366    0.944788788239348  0.0000
  O3     O3        0.468928734696669    0.372078332789191    0.284763487684802  0.0000
  O3     O3        0.580702327095266    0.409237085137574    0.744351986060235  0.0000
  O1     O1        0.564383599842130    0.607124290837319    0.735757127140354  0.0000
  O1     O1        0.434585906531699    0.575613728690248    0.233939299498468  0.0000
  O1     O1        0.937165915544738    0.867165667067884    0.264357618976512  0.0000
  O1     O1        0.075334442806715    0.906496810170291    0.758954102327841  0.0000
  O1     O1        0.077441921494394    0.106371443687485    0.726909680384756  0.0000
  O3     O3        0.943329445607834    0.074791975997072    0.245910297414931  0.0000
  O3     O3        0.373204930701610    0.345739173477400    0.540318757554152  0.0000
  O3     O3        0.688494339071492    0.361704786195781    0.507015148529060  0.0000
  O1     O1        0.645331674239550    0.622487085967706    0.473729147241081  0.0000
  O1     O1        0.339928558502484    0.618950831382901    0.485552009165295  0.0000
  O1     O1        0.847621464606242    0.854975660996620    0.526695104510811  0.0000
  O1     O1        0.156319122603433    0.852303438202672    0.512189565699172  0.0000
  O1     O1        0.176634915138270    0.120055536427814    0.470210384472433  0.0000
  O3     O3        0.862587236912153    0.127374681793115    0.477962547800724  0.0000
  O1     O1        0.255689328785982    0.468618126312315    0.324728014093474  0.0000
  O1     O1        0.779393705176955    0.507893599492587    0.687141396409269  0.0000
  O3     O3        0.761440668658556    0.988823570403785    0.332451025126081  0.0000
  O1     O1        0.276778241395435    0.995988687742245    0.680054493801009  0.0000
  O3     O3        0.352583144092349    0.486433876969960    0.683726793546116  0.0000
  O3     O3        0.669406016437704    0.477151695625630    0.301236534926527  0.0000
  O1     O1        0.846478626614344    0.004289869660654    0.690775120013363  0.0000
  O1     O1        0.166819802087958    0.971597899387151    0.295476227670603  0.0000
