data_c00086.vasp
_audit_creation_method             Generated by GULP
_audit_author_name                 Salvador R. G. Balestra
_symmetry_space_group_name_H-M     'P 1             '
_symmetry_Int_Tables_number        1

loop_
_symmetry_equiv_pos_site_id
_symmetry_equiv_pos_as_xyz
_cell_length_a                        9.9714
_cell_length_b                       15.7707
_cell_length_c                        9.3764
_cell_angle_alpha                   90.9507
_cell_angle_beta                   104.6336
_cell_angle_gamma                   89.2389

loop_
_atom_site_label
_atom_site_type_symbol
_atom_site_fract_x
_atom_site_fract_y
_atom_site_fract_z
_atom_site_charge
  Ge     Ge        0.351599999999962    0.244500000000016    0.893900000000031  0.0000
  Ge     Ge        0.660885849264587    0.241679432154245    0.094978442028983  0.0000
  Ge     Ge        0.688737523282393    0.733457132765772    0.111300328816567  0.0000
  Ge     Ge        0.388688823141969    0.749411881712988    0.892607231213288  0.0000
  Ge     Ge        0.887426896216668    0.734046214199803    0.895293404203630  0.0000
  Ge     Ge        0.190206607376958    0.750903936889566    0.109936571022630  0.0000
  Ge     Ge        0.160224588470292    0.247125000701989    0.111279894848438  0.0000
  Ge     Ge        0.285749221877518    0.397416170239653    0.320669344395864  0.0000
  Ge     Ge        0.695713948211292    0.378588169778779    0.659501167305531  0.0000
  Ge     Ge        0.713968272207340    0.587621973710638    0.673467024641497  0.0000
  Ge     Ge        0.296576892359935    0.597680659035611    0.325241611505217  0.0000
  Ge     Ge        0.791597277044067    0.891047519240309    0.324820684178001  0.0000
  Ge     Ge        0.207277902925294    0.894443489109340    0.680594015466378  0.0000
  Ge     Ge        0.187717826553282    0.094802906905451    0.671906129199221  0.0000
  Ge     Ge        0.771049575926301    0.095453527191720    0.331401895724304  0.0000
  Ge     Ge        0.377279370554503    0.391845068731503    0.675159152253255  0.0000
  Ge     Ge        0.619318791278872    0.589696419093703    0.324708970186798  0.0000
  Ge     Ge        0.388590140564651    0.592623679690511    0.679889232383475  0.0000
  Ge     Ge        0.886924446227401    0.892816513253587    0.691039732349560  0.0000
  Ge     Ge        0.113600234360530    0.895380531781083    0.327623934078046  0.0000
  Ge     Ge        0.105099209967661    0.104494838693411    0.334988539500061  0.0000
  Si     Si        0.869937151996911    0.241400544438277    0.885753471447073  0.0000
  Si     Si        0.600560233140881    0.384592804457696    0.316659753369006  0.0000
  Si     Si        0.858225514881735    0.085537539720628    0.671326985277715  0.0000
  O1     O1        0.529277706486262    0.234532704806651    0.938625453126680  0.0000
  O1     O1        0.566881279801466    0.740723347487422    0.946908295155170  0.0000
  O1     O1        0.065226800695102    0.741696101948100    0.947330516110672  0.0000
  O3     O3        0.034487615888748    0.249557761269971    0.946173422640972  0.0000
  O1     O1        0.268646593359634    0.152518646978413    0.821445724334285  0.0000
  O1     O1        0.657544901440940    0.160586375368005    0.213172749243743  0.0000
  O1     O1        0.679161264659409    0.815965562061111    0.231094325580744  0.0000
  O1     O1        0.341068879563905    0.838318227022205    0.790772802212795  0.0000
  O1     O1        0.840767095911190    0.641630478565463    0.796207357887530  0.0000
  O1     O1        0.180645746799462    0.668546529296421    0.225197818872145  0.0000
  O1     O1        0.156796541574376    0.330962645528629    0.228837817203919  0.0000
  O3     O3        0.820227674076700    0.316410986817636    0.772615280139130  0.0000
  O1     O1        0.300610425746241    0.326225532260547    0.774047058495730  0.0000
  O3     O3        0.655888832118401    0.335976356373623    0.191338418065448  0.0000
  O1     O1        0.683241304315352    0.637861468841859    0.195338233382542  0.0000
  O1     O1        0.323276560387625    0.661801721953715    0.787168832959745  0.0000
  O1     O1        0.821037378335166    0.820109201824197    0.787579156409848  0.0000
  O1     O1        0.187880315604406    0.844788552152540    0.204812299619876  0.0000
  O1     O1        0.160861275033082    0.153462469155016    0.199770304143462  0.0000
  O2     O2        0.839823868447005    0.151210007480630    0.797851060143267  0.0000
  O1     O1        0.311117576858525    0.261685663993133    0.058255515781965  0.0000
  O3     O3        0.808984764582322    0.242739467844860    0.028385818988089  0.0000
  O1     O1        0.842366886504365    0.735346912660527    0.059818815911119  0.0000
  O1     O1        0.342911206974823    0.748570006676180    0.056696638563376  0.0000
  O3     O3        0.448516909087479    0.354611233924409    0.323377374303804  0.0000
  O1     O1        0.536208239953319    0.348035497488525    0.673985480629455  0.0000
  O1     O1        0.551794484528464    0.624984775734817    0.674563320558581  0.0000
  O1     O1        0.459990762938607    0.631905852104156    0.325780547264563  0.0000
  O1     O1        0.937395825139884    0.889016850676259    0.259034594510000  0.0000
  O1     O1        0.064499024992444    0.889083865898638    0.751990687907464  0.0000
  O3     O3        0.013663166724063    0.070630629107544    0.652942278154565  0.0000
  O1     O1        0.928153991551501    0.115371079079959    0.296215118555490  0.0000
  O1     O1        0.275391088279764    0.402729586317470    0.500387846301000  0.0000
  O3     O3        0.705011594776777    0.370137301423008    0.477187909715451  0.0000
  O1     O1        0.731255690113452    0.598301312416598    0.496123451298803  0.0000
  O1     O1        0.283709886378456    0.592334099531213    0.503757351012191  0.0000
  O1     O1        0.840094700879886    0.865785051420252    0.507387659875268  0.0000
  O1     O1        0.166429238804130    0.854712053185771    0.502517149670357  0.0000
  O1     O1        0.183955636643286    0.144171302595345    0.508710888223846  0.0000
  O3     O3        0.769019446091386    0.117788223026269    0.513681959079926  0.0000
  O1     O1        0.265624889205822    0.497132508285782    0.249067066612402  0.0000
  O1     O1        0.723864089133139    0.481711950866154    0.717381448485888  0.0000
  O1     O1        0.722166487452951    0.991651392479449    0.299889059766842  0.0000
  O1     O1        0.264786234271117    0.996746152991494    0.684719995951897  0.0000
  O1     O1        0.399956893646744    0.492223663992158    0.751007191010263  0.0000
  O3     O3        0.588349448045733    0.483647609461880    0.279656790656265  0.0000
  O3     O3        0.815421793758628    0.992749548035658    0.711377669029606  0.0000
  O1     O1        0.157017188634787    0.000574584305925    0.342891367436702  0.0000
