data_c00070.vasp
_audit_creation_method             Generated by GULP
_audit_author_name                 Salvador R. G. Balestra
_symmetry_space_group_name_H-M     'P 1             '
_symmetry_Int_Tables_number        1

loop_
_symmetry_equiv_pos_site_id
_symmetry_equiv_pos_as_xyz
_cell_length_a                       10.3066
_cell_length_b                       15.8112
_cell_length_c                        9.2788
_cell_angle_alpha                   90.6502
_cell_angle_beta                   105.8738
_cell_angle_gamma                   90.1239

loop_
_atom_site_label
_atom_site_type_symbol
_atom_site_fract_x
_atom_site_fract_y
_atom_site_fract_z
_atom_site_charge
  Ge     Ge        0.351599999999962    0.244500000000016    0.893900000000031  0.0000
  Ge     Ge        0.649955450752130    0.215995940388422    0.102461248916495  0.0000
  Ge     Ge        0.665401982042158    0.736199360641470    0.102913311848579  0.0000
  Ge     Ge        0.359116345761731    0.746956839096185    0.891306461246443  0.0000
  Ge     Ge        0.869159348680542    0.740109770847928    0.896335062932540  0.0000
  Ge     Ge        0.166619124351677    0.719738416853601    0.109533481202484  0.0000
  Ge     Ge        0.152389017164073    0.237321146550764    0.105265001834588  0.0000
  Ge     Ge        0.848557182754681    0.236397964413776    0.891881107127148  0.0000
  Ge     Ge        0.333490367253254    0.377181203640998    0.335531642952463  0.0000
  Ge     Ge        0.739900313766246    0.393752434791341    0.686385732594318  0.0000
  Ge     Ge        0.739849476052634    0.594609711087783    0.658911911362474  0.0000
  Ge     Ge        0.227970165861112    0.094730372246654    0.664344108641709  0.0000
  Ge     Ge        0.831311330109187    0.070929066626213    0.305975528813464  0.0000
  Ge     Ge        0.426959027051240    0.396191812998724    0.694048884393942  0.0000
  Ge     Ge        0.642123270041127    0.371223848409827    0.321248247316065  0.0000
  Ge     Ge        0.643455404405848    0.574718816192170    0.296610365465104  0.0000
  Ge     Ge        0.425530172653223    0.597667506852927    0.663850728383398  0.0000
  Ge     Ge        0.935750869587641    0.890633365918424    0.686935247120121  0.0000
  Ge     Ge        0.154090138895969    0.874442407502744    0.331105105128406  0.0000
  Ge     Ge        0.140032110142714    0.076227488979032    0.297600024625212  0.0000
  Ge     Ge        0.916460720342516    0.091609573115973    0.665056818940179  0.0000
  Si     Si        0.340009557120171    0.577312084458081    0.313620828631724  0.0000
  Si     Si        0.846587890873699    0.870341899003864    0.339642703935512  0.0000
  Si     Si        0.246053473327540    0.898827871419554    0.684576653851892  0.0000
  O1     O1        0.476948398020349    0.219668120248430    0.050705978389358  0.0000
  O1     O1        0.492737400230308    0.748153052650901    0.047615127032804  0.0000
  O1     O1        0.993466518218136    0.716176437665105    0.054644450320679  0.0000
  O1     O1        0.978608826126087    0.233538244891461    0.051408409800442  0.0000
  O1     O1        0.343440365219094    0.167382323228705    0.759115629544896  0.0000
  O1     O1        0.698945755564933    0.120514224242768    0.185521276602183  0.0000
  O3     O3        0.730571285245009    0.810588032375457    0.241044250090780  0.0000
  O3     O3        0.354268982212172    0.842551683176191    0.799198262645201  0.0000
  O1     O1        0.857903199735930    0.664203363804128    0.760063013412965  0.0000
  O3     O3        0.221299401919405    0.625971880989578    0.197784926748694  0.0000
  O1     O1        0.200268247470307    0.319568207745543    0.231285687054766  0.0000
  O1     O1        0.855893875055512    0.329541708743857    0.799670608093605  0.0000
  O1     O1        0.372492643685151    0.341826012076787    0.824652801446228  0.0000
  O1     O1        0.710518600596533    0.298230663890032    0.227237855258791  0.0000
  O1     O1        0.698156083626135    0.635907960322615    0.174344721872309  0.0000
  O1     O1        0.359849337160541    0.666696433532055    0.766438559163542  0.0000
  O1     O1        0.895838447006703    0.836239113273636    0.825651062180950  0.0000
  O1     O1        0.219989245292624    0.803182138817712    0.232666139702634  0.0000
  O1     O1        0.206447069879622    0.142647882638756    0.191910001826806  0.0000
  O1     O1        0.841781351550536    0.153700935280858    0.769473093725758  0.0000
  O1     O1        0.204456814256236    0.249159673721476    0.947514416381375  0.0000
  O1     O1        0.700613084268583    0.230336340909388    0.943608941411701  0.0000
  O1     O1        0.721001231570822    0.747053598003849    0.947532691461428  0.0000
  O1     O1        0.215727358148756    0.733729931773956    0.949733175315604  0.0000
  O1     O1        0.467987974251242    0.364469977026072    0.262187391907274  0.0000
  O1     O1        0.599728633731758    0.401577148418320    0.751733130305735  0.0000
  O1     O1        0.598680108870047    0.600159550757921    0.723736978510286  0.0000
  O3     O3        0.468176490861013    0.573216538652654    0.246651957946266  0.0000
  O3     O3        0.979076449215703    0.865777082396098    0.279344633644423  0.0000
  O3     O3        0.108573730890768    0.904176052285298    0.734371360257645  0.0000
  O1     O1        0.089246256377189    0.100577940239188    0.732808820690208  0.0000
  O1     O1        0.966520838469320    0.074461274777094    0.232533143382118  0.0000
  O1     O1        0.374485458552007    0.347983679138083    0.520315765809144  0.0000
  O1     O1        0.689457840925345    0.350643144321655    0.508819074164540  0.0000
  O1     O1        0.700272223507310    0.618284250904144    0.472553563715435  0.0000
  O3     O3        0.380913847076442    0.623825255670262    0.475147952685383  0.0000
  O3     O3        0.883499386946254    0.841460418240787    0.512253969687527  0.0000
  O3     O3        0.213939097037716    0.855934466434446    0.520260576531224  0.0000
  O1     O1        0.178404136230968    0.116150736345390    0.477435085978261  0.0000
  O1     O1        0.869106792610925    0.119229070493068    0.479316246537943  0.0000
  O3     O3        0.291301716878269    0.483237036964252    0.335956925582789  0.0000
  O1     O1        0.803017331161591    0.493394276375348    0.679049890360704  0.0000
  O3     O3        0.793856301585317    0.966193437663744    0.331421460666647  0.0000
  O3     O3        0.298929526125141    0.994158987608031    0.681583086593647  0.0000
  O1     O1        0.368152053682686    0.498126268444880    0.685858248045528  0.0000
  O1     O1        0.694508339594369    0.471942193156232    0.292575216995466  0.0000
  O1     O1        0.866993587947785    0.988971997145094    0.679987183953007  0.0000
  O1     O1        0.198145385515054    0.974962882379551    0.293681372437852  0.0000
