data_c00077.vasp
_audit_creation_method             Generated by GULP
_audit_author_name                 Salvador R. G. Balestra
_symmetry_space_group_name_H-M     'P 1             '
_symmetry_Int_Tables_number        1

loop_
_symmetry_equiv_pos_site_id
_symmetry_equiv_pos_as_xyz
_cell_length_a                       10.1500
_cell_length_b                       15.8022
_cell_length_c                        9.2678
_cell_angle_alpha                   90.3126
_cell_angle_beta                   104.7638
_cell_angle_gamma                   88.9144

loop_
_atom_site_label
_atom_site_type_symbol
_atom_site_fract_x
_atom_site_fract_y
_atom_site_fract_z
_atom_site_charge
  Ge     Ge        0.351599999999962    0.244500000000016    0.893900000000031  0.0000
  Ge     Ge        0.660420164984273    0.250080422772099    0.082666045780381  0.0000
  Ge     Ge        0.685249800017939    0.749614641836994    0.108765383241783  0.0000
  Ge     Ge        0.386895905680474    0.750081374174911    0.887920479649538  0.0000
  Ge     Ge        0.884309289081772    0.735906952531506    0.895139333234952  0.0000
  Ge     Ge        0.184348950828642    0.760161403892680    0.103743420021174  0.0000
  Ge     Ge        0.157582897944657    0.261824565569049    0.107204997214359  0.0000
  Ge     Ge        0.281050040913104    0.413224458898412    0.313217172144473  0.0000
  Ge     Ge        0.693267990726110    0.383526250705256    0.654249704054053  0.0000
  Ge     Ge        0.707947170177480    0.587478788652941    0.684178329225648  0.0000
  Ge     Ge        0.300251746008071    0.613050189427209    0.339314692597858  0.0000
  Ge     Ge        0.788303066262747    0.907460168932178    0.314062935026703  0.0000
  Ge     Ge        0.202896803695058    0.894453109927338    0.666902924354918  0.0000
  Ge     Ge        0.190568531919069    0.094492243041273    0.674096248928489  0.0000
  Ge     Ge        0.774959914211645    0.109977193819262    0.336326555837946  0.0000
  Ge     Ge        0.382847918437827    0.394085305234930    0.674566205802226  0.0000
  Ge     Ge        0.595848890019990    0.400769888735027    0.296825342620868  0.0000
  Ge     Ge        0.618102868576245    0.603137031369308    0.328928128453417  0.0000
  Ge     Ge        0.891591005028826    0.894141977369824    0.684081224282988  0.0000
  Ge     Ge        0.102219377794840    0.908455505369437    0.307822999521904  0.0000
  Ge     Ge        0.102712641805423    0.115339990926125    0.333662488755514  0.0000
  Si     Si        0.873792235230004    0.245444897782879    0.879353291750967  0.0000
  Si     Si        0.395315733295959    0.591771851510647    0.693304832829756  0.0000
  Si     Si        0.869943635179678    0.086591376768034    0.677243229448102  0.0000
  O1     O1        0.525152553814374    0.228902353003324    0.934359798608162  0.0000
  O1     O1        0.561944963752900    0.752033553348526    0.944283555285808  0.0000
  O1     O1        0.059750926044682    0.735178870255669    0.947572243077328  0.0000
  O3     O3        0.032067772710188    0.265846551328300    0.941857873936508  0.0000
  O1     O1        0.266231640284813    0.153720467292609    0.823877233614175  0.0000
  O1     O1        0.663926487856341    0.178737169618952    0.223345978757156  0.0000
  O1     O1        0.673082432239230    0.837077271710780    0.216817313126646  0.0000
  O1     O1        0.332365953933772    0.829498802162097    0.762937644834786  0.0000
  O1     O1        0.829453024421275    0.641249676339022    0.810263827086564  0.0000
  O1     O1        0.190183193738318    0.688724659911372    0.246026751797285  0.0000
  O1     O1        0.153656419952864    0.349741177922770    0.215102202972357  0.0000
  O3     O3        0.813641646224958    0.311824564580598    0.750717247885940  0.0000
  O1     O1        0.306308201556239    0.327839292270681    0.771606777218919  0.0000
  O1     O1        0.648493014700411    0.348184371059098    0.158681913668102  0.0000
  O1     O1        0.686918218112930    0.660294154834117    0.212691520845240  0.0000
  O3     O3        0.340172769158592    0.652393577112841    0.803841995870142  0.0000
  O1     O1        0.824518862963366    0.819392585082915    0.775984485950133  0.0000
  O1     O1        0.166878509335727    0.858568076905893    0.176014757957005  0.0000
  O1     O1        0.155981517004139    0.170256793024884    0.202057643125688  0.0000
  O2     O2        0.865128864510597    0.150012821177863    0.811892632676776  0.0000
  O1     O1        0.309713699314488    0.265645946850102    0.057447099293461  0.0000
  O3     O3        0.806403194277984    0.246935258963850    0.017882017900352  0.0000
  O1     O1        0.837082873588326    0.748733942770583    0.058512953731350  0.0000
  O1     O1        0.333496956168398    0.758731528818275    0.048073742495611  0.0000
  O1     O1        0.421923857502087    0.412914222723702    0.242279792734207  0.0000
  O1     O1        0.556918123482695    0.381281104107232    0.732515234325504  0.0000
  O3     O3        0.559220930084442    0.583485950620477    0.743145206604727  0.0000
  O1     O1        0.443417135403757    0.612471257407703    0.272825036317392  0.0000
  O1     O1        0.928561937827895    0.907814932800646    0.242490701729296  0.0000
  O1     O1        0.066442441597352    0.885603297617976    0.744858429700301  0.0000
  O3     O3        0.019445615754021    0.068739296344066    0.650244526585688  0.0000
  O1     O1        0.929491573399543    0.128469825368888    0.300160954449632  0.0000
  O1     O1        0.333966472830152    0.370757759928598    0.489069831826910  0.0000
  O1     O1        0.646548654973956    0.353298722898074    0.470218272458241  0.0000
  O1     O1        0.676415263099172    0.634622831729166    0.512178623931522  0.0000
  O3     O3        0.352275357117688    0.632463962830271    0.528638149070468  0.0000
  O1     O1        0.843743639674196    0.875495637931204    0.496316247627449  0.0000
  O1     O1        0.155912323593848    0.864062119480167    0.482658787939942  0.0000
  O1     O1        0.186538433407975    0.147191984245963    0.511546746660967  0.0000
  O3     O3        0.778432123987040    0.125247576466851    0.523650526763838  0.0000
  O1     O1        0.224123255293018    0.515706628526602    0.314316233266909  0.0000
  O1     O1        0.758280070319883    0.483478252293483    0.670391406661851  0.0000
  O1     O1        0.721048231711780    0.008145563326161    0.298543944649534  0.0000
  O1     O1        0.265058735065899    0.995770697375811    0.686245275435353  0.0000
  O3     O3        0.334353738348992    0.498828722982012    0.694128292675256  0.0000
  O1     O1        0.666421310104637    0.499130289579557    0.319321433089277  0.0000
  O3     O3        0.825802204088691    0.994052471476941    0.715331919594925  0.0000
  O1     O1        0.152528489246011    0.011664187632658    0.326888609900864  0.0000
