data_c00095.vasp
_audit_creation_method             Generated by GULP
_audit_author_name                 Salvador R. G. Balestra
_symmetry_space_group_name_H-M     'P 1             '
_symmetry_Int_Tables_number        1

loop_
_symmetry_equiv_pos_site_id
_symmetry_equiv_pos_as_xyz
_cell_length_a                       10.2281
_cell_length_b                       15.8079
_cell_length_c                        9.2899
_cell_angle_alpha                   90.1661
_cell_angle_beta                   105.0993
_cell_angle_gamma                   90.4101

loop_
_atom_site_label
_atom_site_type_symbol
_atom_site_fract_x
_atom_site_fract_y
_atom_site_fract_z
_atom_site_charge
  Ge     Ge        0.351599999999962    0.244500000000016    0.893900000000031  0.0000
  Ge     Ge        0.654025601841416    0.238190081993813    0.112211296068353  0.0000
  Ge     Ge        0.658204394281753    0.735398418552694    0.114083960845217  0.0000
  Ge     Ge        0.356485728845936    0.750932229755641    0.907043696150914  0.0000
  Ge     Ge        0.858090658377505    0.743530402060052    0.896970878495859  0.0000
  Ge     Ge        0.156054954352624    0.738288578419307    0.116129560109809  0.0000
  Ge     Ge        0.144231500382101    0.236254804554467    0.106534601240592  0.0000
  Ge     Ge        0.273987623596006    0.381817705078346    0.340964251166247  0.0000
  Ge     Ge        0.675292255591099    0.392964334352741    0.694817133528690  0.0000
  Ge     Ge        0.679415677352796    0.597064379888874    0.675921268817067  0.0000
  Ge     Ge        0.268324212066083    0.583247471466286    0.323526497583007  0.0000
  Ge     Ge        0.771378528731445    0.884194693885103    0.347015792470019  0.0000
  Ge     Ge        0.175179657051189    0.896329923843846    0.693003582934807  0.0000
  Ge     Ge        0.175767480693297    0.100848306884473    0.669079413307116  0.0000
  Ge     Ge        0.760688761182767    0.084085251365823    0.327025011037819  0.0000
  Ge     Ge        0.592018702982760    0.381549047243184    0.340542456680532  0.0000
  Ge     Ge        0.583846365827185    0.585553465850323    0.318922167967563  0.0000
  Ge     Ge        0.367030866696021    0.597408338738160    0.686517129379535  0.0000
  Ge     Ge        0.086982198160739    0.883975421552394    0.339570064426664  0.0000
  Ge     Ge        0.076586616004251    0.086657549641451    0.314912455310204  0.0000
  Ge     Ge        0.865398710733393    0.100358607820048    0.690480639788832  0.0000
  Si     Si        0.849270775780509    0.249909410834416    0.905857966714939  0.0000
  Si     Si        0.364005860660050    0.399418572739648    0.695711668019481  0.0000
  Si     Si        0.867383203709573    0.901834880426014    0.704107549491320  0.0000
  O1     O1        0.525082950236558    0.240830528552425    0.954514840557951  0.0000
  O1     O1        0.530514073997151    0.755242798307922    0.957829844585671  0.0000
  O1     O1        0.032021478065741    0.738991171056591    0.952706454697831  0.0000
  O3     O3        0.011982192255750    0.256092009898079    0.951691942768220  0.0000
  O1     O1        0.304211642764695    0.162151166516357    0.772259054366097  0.0000
  O1     O1        0.644847620104872    0.149533716431720    0.216394732975962  0.0000
  O1     O1        0.661076430200965    0.809170437394220    0.252466329228763  0.0000
  O1     O1        0.297883500441320    0.843583973915437    0.818737800143790  0.0000
  O1     O1        0.805807768952076    0.660800686626738    0.777367764146134  0.0000
  O1     O1        0.148681976968392    0.648410251258655    0.217985537357047  0.0000
  O1     O1        0.156468982147002    0.310918012466751    0.244748389571570  0.0000
  O3     O3        0.790659146560359    0.336421542225169    0.826092109479639  0.0000
  O3     O3        0.304795807042923    0.340050910948917    0.803112505616701  0.0000
  O1     O1        0.662971856422805    0.324770914588372    0.224898094993782  0.0000
  O1     O1        0.643854963666520    0.637689101098401    0.188284729105290  0.0000
  O1     O1        0.299980717756517    0.665808879783929    0.789639619904095  0.0000
  O3     O3        0.809238821139478    0.839723615857171    0.808763720109350  0.0000
  O1     O1        0.155566894890449    0.825806214199144    0.224064864110763  0.0000
  O1     O1        0.131307969048063    0.138609114422604    0.180145308091737  0.0000
  O3     O3        0.799053999353402    0.170396210412070    0.795052098435615  0.0000
  O1     O1        0.289603365315699    0.238493833138627    0.046979596770715  0.0000
  O3     O3        0.804124284151334    0.236335320428060    0.057004051356569  0.0000
  O1     O1        0.805050977415338    0.737596803745278    0.056715243972105  0.0000
  O1     O1        0.307952651841568    0.739211204325369    0.068376710027829  0.0000
  O1     O1        0.418143469680637    0.375322057125285    0.279094683716999  0.0000
  O3     O3        0.527138624995419    0.402408203838542    0.750174820676351  0.0000
  O1     O1        0.540475765290176    0.603979412089530    0.747395326975798  0.0000
  O1     O1        0.410666846826489    0.580397837031483    0.257828874687205  0.0000
  O1     O1        0.913152987342308    0.880348651422199    0.280730672197255  0.0000
  O3     O3        0.030515566529542    0.902974134254289    0.756618042965852  0.0000
  O1     O1        0.038288226097261    0.107748428001275    0.743487808827895  0.0000
  O1     O1        0.903472905775542    0.079777852267195    0.263063254134709  0.0000
  O3     O3        0.321452117212324    0.360375775624806    0.529817197656804  0.0000
  O1     O1        0.644267025014624    0.346684840946493    0.522317088788659  0.0000
  O1     O1        0.633870960647164    0.630535007677389    0.493676694896833  0.0000
  O1     O1        0.317005634145649    0.623289917913920    0.501902415534914  0.0000
  O3     O3        0.822594930470700    0.865391333042946    0.536341075354343  0.0000
  O1     O1        0.139073756178747    0.848729674831060    0.520746245650370  0.0000
  O1     O1        0.128604861550456    0.134626835234521    0.487311151653353  0.0000
  O1     O1        0.805231088875053    0.123996943845473    0.505949161224692  0.0000
  O1     O1        0.207326022054037    0.481724911542099    0.318660182878136  0.0000
  O1     O1        0.734533209927949    0.494187956552819    0.686159619189367  0.0000
  O1     O1        0.698917197608122    0.982639072818675    0.322974496820988  0.0000
  O1     O1        0.228461978297393    0.997992463153335    0.674865835454218  0.0000
  O3     O3        0.310072146534940    0.494219251550073    0.699131735522690  0.0000
  O1     O1        0.644968034718631    0.484302601059100    0.338499983538890  0.0000
  O3     O3        0.814384435339654    0.996694611758640    0.712333355004100  0.0000
  O1     O1        0.141281605455617    0.986482798035675    0.333589838815079  0.0000
