data_c00083.vasp
_audit_creation_method             Generated by GULP
_audit_author_name                 Salvador R. G. Balestra
_symmetry_space_group_name_H-M     'P 1             '
_symmetry_Int_Tables_number        1

loop_
_symmetry_equiv_pos_site_id
_symmetry_equiv_pos_as_xyz
_cell_length_a                       10.2798
_cell_length_b                       15.8718
_cell_length_c                        9.2652
_cell_angle_alpha                   90.2927
_cell_angle_beta                   105.0693
_cell_angle_gamma                   89.6223

loop_
_atom_site_label
_atom_site_type_symbol
_atom_site_fract_x
_atom_site_fract_y
_atom_site_fract_z
_atom_site_charge
  Ge     Ge        0.351599999999962    0.244500000000016    0.893900000000031  0.0000
  Ge     Ge        0.655487348502967    0.256478605652756    0.103613994914479  0.0000
  Ge     Ge        0.643781897776135    0.746882123001096    0.116619223660964  0.0000
  Ge     Ge        0.344306620725619    0.757946434956166    0.901264954953098  0.0000
  Ge     Ge        0.842258265280060    0.748748299400227    0.900128790539383  0.0000
  Ge     Ge        0.141570334678244    0.753573063855332    0.112373134258342  0.0000
  Ge     Ge        0.145782422881729    0.245329498004130    0.104049613924495  0.0000
  Ge     Ge        0.272381107039286    0.396305301410754    0.324038348489998  0.0000
  Ge     Ge        0.677948165584836    0.402475343877664    0.681853771006770  0.0000
  Ge     Ge        0.668975635503239    0.604866659917865    0.672933403416017  0.0000
  Ge     Ge        0.265873871499507    0.599684434346204    0.327885732651389  0.0000
  Ge     Ge        0.762061845389288    0.901346785316729    0.336230275169349  0.0000
  Ge     Ge        0.168072502307386    0.900027290026080    0.674553161600732  0.0000
  Ge     Ge        0.177015035340099    0.102790827459789    0.670508120140775  0.0000
  Ge     Ge        0.763818859540630    0.102942695989565    0.323716539492112  0.0000
  Ge     Ge        0.364068435620267    0.400502811331104    0.688586834422305  0.0000
  Ge     Ge        0.584784088756717    0.400915077051981    0.322389823883392  0.0000
  Ge     Ge        0.357514034213943    0.602462053009678    0.690359152338544  0.0000
  Ge     Ge        0.858808291246253    0.907450968026263    0.701085124045822  0.0000
  Ge     Ge        0.074072380136894    0.097523145464541    0.313163185201119  0.0000
  Ge     Ge        0.867084550452776    0.109620048731284    0.690492555424417  0.0000
  Si     Si        0.853256730845821    0.262340900869648    0.896456677635159  0.0000
  Si     Si        0.572151586738614    0.600902602014877    0.322435088647830  0.0000
  Si     Si        0.067892630271094    0.898644247922021    0.325066237144153  0.0000
  O1     O1        0.524762282358517    0.248330811170168    0.948229025776033  0.0000
  O1     O1        0.517661808529567    0.759663353816898    0.957363427484893  0.0000
  O1     O1        0.015827321327770    0.744289738502578    0.952440545182084  0.0000
  O3     O3        0.015493033294728    0.260390585101586    0.945525694207053  0.0000
  O1     O1        0.307268057944009    0.159459732364172    0.777799251437912  0.0000
  O1     O1        0.650536138063348    0.172803439904386    0.219666485566845  0.0000
  O1     O1        0.648707872504516    0.832194547816318    0.232620650434248  0.0000
  O1     O1        0.294854449939148    0.839494357734262    0.778422089918591  0.0000
  O1     O1        0.791140324364694    0.670003479175223    0.771340587689356  0.0000
  O1     O1        0.148381518139087    0.665019487020525    0.219556163225379  0.0000
  O1     O1        0.152763484135520    0.328306803256475    0.225357890235809  0.0000
  O3     O3        0.804730314751595    0.345549930242393    0.800548256750520  0.0000
  O1     O1        0.296543540305630    0.335248551921836    0.794881968997596  0.0000
  O1     O1        0.657180129414431    0.348378551256707    0.202647154638002  0.0000
  O3     O3        0.630966048704685    0.654438558114951    0.208956267038575  0.0000
  O1     O1        0.293577876841229    0.665532247454844    0.805277722667048  0.0000
  O1     O1        0.795321449363681    0.844689931395950    0.815364075320060  0.0000
  O3     O3        0.125447646095467    0.843195780720452    0.212074876279192  0.0000
  O1     O1        0.139059091312822    0.150386631644136    0.188761800561636  0.0000
  O3     O3        0.800794368588526    0.180707945487768    0.793926609298116  0.0000
  O1     O1        0.292937858578818    0.240459471991445    0.049299724496646  0.0000
  O3     O3        0.803488471843335    0.258446191406320    0.046414255056937  0.0000
  O1     O1        0.789799179594901    0.738324409380427    0.059523661370256  0.0000
  O1     O1        0.289016815327938    0.765017891169358    0.059381663170396  0.0000
  O1     O1        0.413122335874956    0.392004219252116    0.255982737809521  0.0000
  O1     O1        0.537592658643406    0.402206192534855    0.749008632132015  0.0000
  O1     O1        0.531134846248626    0.606190605675913    0.745041015839257  0.0000
  O3     O3        0.410464805857872    0.599536501975698    0.263663230615870  0.0000
  O3     O3        0.905842554434591    0.901023392002926    0.270808893524300  0.0000
  O1     O1        0.032446591310897    0.901354698616365    0.750306053494562  0.0000
  O1     O1        0.040073986590414    0.108430236379851    0.744981035596219  0.0000
  O1     O1        0.902407685204259    0.102879268156984    0.252581066657563  0.0000
  O1     O1        0.322938669214585    0.365479216108057    0.507091644639261  0.0000
  O1     O1        0.638990291981678    0.363438767856882    0.502216708216746  0.0000
  O3     O3        0.615098820197637    0.639273316436586    0.488866420133438  0.0000
  O1     O1        0.303223431107231    0.635459075777060    0.508110492807882  0.0000
  O1     O1        0.801000597913052    0.872741359716481    0.519624586723869  0.0000
  O3     O3        0.113013982821881    0.862021079334440    0.492372091558976  0.0000
  O1     O1        0.129930703418186    0.139364259397396    0.489771775517216  0.0000
  O1     O1        0.815280251503215    0.136782238641002    0.505859296036979  0.0000
  O1     O1        0.210051029039685    0.497495934417885    0.316562252398057  0.0000
  O1     O1        0.732182345731513    0.504390634279021    0.680113161886068  0.0000
  O1     O1        0.699927157261933    0.002959282813917    0.318692076690585  0.0000
  O1     O1        0.228206177387907    0.999923471429445    0.670732687998447  0.0000
  O1     O1        0.304121835944132    0.500851113623435    0.697846499899709  0.0000
  O3     O3        0.629347857488841    0.506198350141969    0.330083457998834  0.0000
  O1     O1        0.809890287665855    0.010270715261479    0.712815226659683  0.0000
  O3     O3        0.124587261657761    0.992832965392632    0.325776230229462  0.0000
