data_c00062.vasp
_audit_creation_method             Generated by GULP
_audit_author_name                 Salvador R. G. Balestra
_symmetry_space_group_name_H-M     'P 1             '
_symmetry_Int_Tables_number        1

loop_
_symmetry_equiv_pos_site_id
_symmetry_equiv_pos_as_xyz
_cell_length_a                       10.3098
_cell_length_b                       15.8012
_cell_length_c                        9.2620
_cell_angle_alpha                   90.5155
_cell_angle_beta                   105.8678
_cell_angle_gamma                   89.8982

loop_
_atom_site_label
_atom_site_type_symbol
_atom_site_fract_x
_atom_site_fract_y
_atom_site_fract_z
_atom_site_charge
  Ge     Ge        0.351599999999962    0.244500000000016    0.893900000000031  0.0000
  Ge     Ge        0.651052776826379    0.222846906767099    0.102535508570175  0.0000
  Ge     Ge        0.637513882620839    0.742883966981986    0.094401907142040  0.0000
  Ge     Ge        0.330821150964350    0.747181471293721    0.879004534175256  0.0000
  Ge     Ge        0.847993048912954    0.749141983850916    0.894328566225127  0.0000
  Ge     Ge        0.144227352455646    0.720834984516987    0.102625195713332  0.0000
  Ge     Ge        0.146085470783900    0.237852757803036    0.099605922680146  0.0000
  Ge     Ge        0.841917628263723    0.245927958538622    0.884383129188088  0.0000
  Ge     Ge        0.324991033584793    0.377894902391396    0.332077484936295  0.0000
  Ge     Ge        0.731948524176587    0.404511414786260    0.683385340631598  0.0000
  Ge     Ge        0.717265053656364    0.605422896983940    0.652544828171862  0.0000
  Ge     Ge        0.821057706919889    0.878320392188982    0.334046546461370  0.0000
  Ge     Ge        0.220670646558208    0.098774215484868    0.658555514131093  0.0000
  Ge     Ge        0.418533286990519    0.398810676818989    0.691052612510326  0.0000
  Ge     Ge        0.634763439462398    0.377984685854457    0.319287073241163  0.0000
  Ge     Ge        0.624775876832492    0.581418385238927    0.290399737041425  0.0000
  Ge     Ge        0.403117616898912    0.599845181236922    0.655086849409139  0.0000
  Ge     Ge        0.917343676875651    0.899849914911236    0.690408486412465  0.0000
  Ge     Ge        0.132147172269978    0.875444151079063    0.322096193026615  0.0000
  Ge     Ge        0.131237562190453    0.077829453457488    0.295874785234542  0.0000
  Ge     Ge        0.907484575333160    0.100415711417549    0.656669032729469  0.0000
  Si     Si        0.320780632860774    0.577894972078943    0.303763290688537  0.0000
  Si     Si        0.224082010555924    0.902269912985401    0.677179501582825  0.0000
  Si     Si        0.826661353544559    0.078690408095758    0.305267807491113  0.0000
  O1     O1        0.477730646388726    0.219881391202424    0.050729593450018  0.0000
  O1     O1        0.464116498791752    0.745847995617337    0.035382465771898  0.0000
  O1     O1        0.970892032518024    0.718520393573679    0.050159610678966  0.0000
  O1     O1        0.972358361960951    0.237308272652381    0.042318158253722  0.0000
  O1     O1        0.340311302856764    0.166949850206157    0.759421254596567  0.0000
  O3     O3        0.708444280165518    0.128652019133141    0.189948519020857  0.0000
  O1     O1        0.689648809895938    0.819694713029572    0.229838144150941  0.0000
  O3     O3        0.330851183034427    0.843234676914993    0.788941278547399  0.0000
  O1     O1        0.832067570046332    0.677277036003176    0.750676289332131  0.0000
  O3     O3        0.200862491273914    0.625847822148853    0.186960201872756  0.0000
  O1     O1        0.195035671410711    0.317146115116496    0.230926464693110  0.0000
  O1     O1        0.848890715459798    0.342573018175699    0.802037508874496  0.0000
  O1     O1        0.371649860716741    0.342167630339950    0.824399449721785  0.0000
  O1     O1        0.705321382588779    0.307274815557026    0.222613711209215  0.0000
  O1     O1        0.679667806928524    0.643609654490728    0.169594590179915  0.0000
  O1     O1        0.329224956476527    0.667558876121433    0.752305864602409  0.0000
  O1     O1        0.881906706401354    0.846983296924300    0.834380585413164  0.0000
  O1     O1        0.201034428680302    0.802710456736620    0.227881122104253  0.0000
  O1     O1        0.191706183145372    0.140283885926070    0.179859146700702  0.0000
  O1     O1        0.832288794387574    0.169375907846532    0.749730961279201  0.0000
  O1     O1        0.203769307269227    0.250977456559155    0.946198512237046  0.0000
  O1     O1        0.696019505078405    0.236824799004662    0.939883236684186  0.0000
  O1     O1        0.699021866474026    0.757197288406849    0.943475680506957  0.0000
  O1     O1        0.188157713450894    0.736064174828500    0.939194350871899  0.0000
  O1     O1        0.461249245585992    0.367385646980734    0.260760054654270  0.0000
  O1     O1        0.590095247483160    0.410491593195938    0.746090109259250  0.0000
  O1     O1        0.575969207357847    0.608089051541569    0.717790857089005  0.0000
  O3     O3        0.449717592129102    0.575379536994071    0.237910892479803  0.0000
  O1     O1        0.958932551031644    0.864292794856144    0.266138476973014  0.0000
  O3     O3        0.090102830071946    0.912755463857424    0.732427444237710  0.0000
  O1     O1        0.080262002882371    0.108321453602367    0.723441202601235  0.0000
  O3     O3        0.955908082050050    0.073634773174137    0.240448203871384  0.0000
  O1     O1        0.367753960545522    0.349905074158602    0.517955526925086  0.0000
  O1     O1        0.686165002663399    0.358538139164799    0.507554554945962  0.0000
  O1     O1        0.675867955362653    0.627554607750562    0.465084235060852  0.0000
  O3     O3        0.359490932066827    0.624393903417957    0.465300236233372  0.0000
  O1     O1        0.856740314534533    0.849911418275832    0.519882915324085  0.0000
  O3     O3        0.182006434549776    0.858537469514614    0.513261635654877  0.0000
  O1     O1        0.182424790195111    0.122192497988236    0.471796159975509  0.0000
  O3     O3        0.867639559179459    0.124749499136615    0.467099730590213  0.0000
  O3     O3        0.275487144349393    0.483034299003393    0.326394288555118  0.0000
  O1     O1        0.787789524613585    0.505569878414646    0.674037407555403  0.0000
  O3     O3        0.777819864564046    0.984473525292550    0.327707091880176  0.0000
  O3     O3        0.282965595365877    0.995593815881326    0.671471620760034  0.0000
  O1     O1        0.352107490238643    0.499270062996275    0.680267532221463  0.0000
  O1     O1        0.682132789927803    0.479779629674805    0.290184738267308  0.0000
  O1     O1        0.853696536147229    0.000577865100023    0.682195499788896  0.0000
  O1     O1        0.182817857661526    0.975196948345428    0.288900167600596  0.0000
