data_c00033.vasp
_audit_creation_method             Generated by GULP
_audit_author_name                 Salvador R. G. Balestra
_symmetry_space_group_name_H-M     'P 1             '
_symmetry_Int_Tables_number        1

loop_
_symmetry_equiv_pos_site_id
_symmetry_equiv_pos_as_xyz
_cell_length_a                       10.3529
_cell_length_b                       15.8163
_cell_length_c                        9.2097
_cell_angle_alpha                   90.8969
_cell_angle_beta                   105.4286
_cell_angle_gamma                   90.1594

loop_
_atom_site_label
_atom_site_type_symbol
_atom_site_fract_x
_atom_site_fract_y
_atom_site_fract_z
_atom_site_charge
  Ge     Ge        0.351599999999962    0.244500000000016    0.893900000000031  0.0000
  Ge     Ge        0.649002184538489    0.221620829431237    0.108125219882231  0.0000
  Ge     Ge        0.626552269500565    0.739827379536769    0.107481519813392  0.0000
  Ge     Ge        0.327630376927723    0.732504635171330    0.887950356075191  0.0000
  Ge     Ge        0.831049736700860    0.750470899474703    0.899833942094023  0.0000
  Ge     Ge        0.128669721329169    0.715197049239758    0.101211428143166  0.0000
  Ge     Ge        0.149910327592248    0.232047315861105    0.106547887538539  0.0000
  Ge     Ge        0.847063229243057    0.247162784412219    0.896153885860931  0.0000
  Ge     Ge        0.323975211574809    0.370518877669226    0.349696585631951  0.0000
  Ge     Ge        0.727504237665623    0.401704558838458    0.695380363749095  0.0000
  Ge     Ge        0.702275282675957    0.603942739565503    0.661811181630283  0.0000
  Ge     Ge        0.304866581844066    0.571251077916395    0.316875061755694  0.0000
  Ge     Ge        0.810295489411940    0.877906244493848    0.338839051717111  0.0000
  Ge     Ge        0.218126589569138    0.892874091691279    0.685454494284208  0.0000
  Ge     Ge        0.221974014398280    0.094577659202243    0.660204358765771  0.0000
  Ge     Ge        0.633705483670065    0.375969940376211    0.331053301888106  0.0000
  Ge     Ge        0.613408516506827    0.577996089817326    0.297588035997399  0.0000
  Ge     Ge        0.909817261404387    0.899557099363422    0.700219190489441  0.0000
  Ge     Ge        0.115558318378467    0.870363325143669    0.318279491864893  0.0000
  Ge     Ge        0.122503731895737    0.072987905274032    0.294751220971232  0.0000
  Ge     Ge        0.909543950902135    0.100239425155391    0.662800216262991  0.0000
  Si     Si        0.820510881012782    0.077756024911097    0.310029091729302  0.0000
  Si     Si        0.424615252678250    0.393721183569534    0.702428271732152  0.0000
  Si     Si        0.402027557267169    0.590233325486063    0.672039909914438  0.0000
  O1     O1        0.476459607691699    0.220673763364840    0.050563497116789  0.0000
  O1     O1        0.453893310238367    0.736966090820149    0.050324530023519  0.0000
  O1     O1        0.956560978491577    0.718364925834367    0.049482213367216  0.0000
  O1     O1        0.977737276497245    0.241108845764818    0.052239726346927  0.0000
  O1     O1        0.337931429475735    0.166346942306091    0.759647403241085  0.0000
  O3     O3        0.701689840245650    0.128162382090710    0.199382443919899  0.0000
  O1     O1        0.676370313149655    0.818697858231640    0.241424826152596  0.0000
  O1     O1        0.330986373247682    0.823897234127045    0.790715384221458  0.0000
  O1     O1        0.814509740033488    0.677730552061752    0.755127163667076  0.0000
  O1     O1        0.176709610074649    0.624886752363341    0.200530576163393  0.0000
  O1     O1        0.207533394698474    0.298136538437214    0.259133670214281  0.0000
  O1     O1        0.847395479342111    0.345247997061474    0.817070661368153  0.0000
  O3     O3        0.370060112518760    0.343617477514125    0.823323133184509  0.0000
  O1     O1        0.701567818615447    0.306184702978280    0.229390357789981  0.0000
  O1     O1        0.674489837370566    0.642291942961418    0.183736199602192  0.0000
  O3     O3        0.330455284831061    0.644218723802532    0.774615383404300  0.0000
  O1     O1        0.858666485757359    0.848309034494817    0.837276786704442  0.0000
  O1     O1        0.186095190929535    0.800634304847923    0.219732764160564  0.0000
  O1     O1        0.180870822091801    0.130002644655940    0.169488285649103  0.0000
  O1     O1        0.842240790716721    0.172628403574092    0.757810507104003  0.0000
  O1     O1        0.207714156325747    0.252204385466235    0.954131009458298  0.0000
  O1     O1        0.701418616113526    0.231890010890163    0.949187826460514  0.0000
  O1     O1        0.684856196374078    0.756481711527586    0.953972147263550  0.0000
  O1     O1        0.180642277456041    0.722353441083525    0.939995051768195  0.0000
  O1     O1        0.461317141845506    0.367257160744561    0.278536551395654  0.0000
  O3     O3        0.584282918702948    0.397052075715445    0.759655082580938  0.0000
  O3     O3        0.561057376368225    0.606186710239033    0.730744159221173  0.0000
  O1     O1        0.440858565463948    0.572692070405338    0.243783504371557  0.0000
  O1     O1        0.942461896485264    0.862691940248197    0.261289598823681  0.0000
  O1     O1        0.081741195063795    0.902337258901861    0.756950677032024  0.0000
  O1     O1        0.081634802008820    0.101837116732680    0.726263787862291  0.0000
  O3     O3        0.947943305397400    0.072276553933628    0.241697545387956  0.0000
  O3     O3        0.376624723132551    0.347696887404477    0.540089428617359  0.0000
  O1     O1        0.692337405546630    0.356013720733884    0.519000601163106  0.0000
  O1     O1        0.657199530654193    0.624106655188646    0.474635280701956  0.0000
  O3     O3        0.350056712307163    0.615393346493709    0.497899954144622  0.0000
  O1     O1        0.854433830790359    0.851294162056206    0.525722132171327  0.0000
  O1     O1        0.161975555110438    0.850461969113822    0.507015926809719  0.0000
  O1     O1        0.180952391371217    0.116598817157059    0.472070817482699  0.0000
  O3     O3        0.867321456323729    0.123799936882006    0.472811526632555  0.0000
  O1     O1        0.253797612461468    0.468849243096071    0.324233854785536  0.0000
  O1     O1        0.773001059795592    0.504950368968418    0.688535201557143  0.0000
  O3     O3        0.769051480550780    0.984186477818449    0.331982252358743  0.0000
  O1     O1        0.283198043854458    0.992649781923847    0.681871310346117  0.0000
  O2     O2        0.369853000014857    0.490160651193249    0.682657675569641  0.0000
  O1     O1        0.677103202030351    0.478290118073516    0.300411572994219  0.0000
  O1     O1        0.852141344177845    0.001463168719675    0.689108971412755  0.0000
  O1     O1        0.171219475997297    0.970138795185665    0.292762400173845  0.0000
