data_c00001.vasp
_audit_creation_method             Generated by GULP
_audit_author_name                 Salvador R. G. Balestra
_symmetry_space_group_name_H-M     'P 1             '
_symmetry_Int_Tables_number        1

loop_
_symmetry_equiv_pos_site_id
_symmetry_equiv_pos_as_xyz
_cell_length_a                       10.3458
_cell_length_b                       15.8186
_cell_length_c                        9.2630
_cell_angle_alpha                   89.8294
_cell_angle_beta                   104.8160
_cell_angle_gamma                   89.4898

loop_
_atom_site_label
_atom_site_type_symbol
_atom_site_fract_x
_atom_site_fract_y
_atom_site_fract_z
_atom_site_charge
  Ge     Ge        0.351599999999962    0.244500000000016    0.893900000000031  0.0000
  Ge     Ge        0.651911069043470    0.262717222863587    0.093294445983915  0.0000
  Ge     Ge        0.647699209583350    0.762174187245562    0.097061502945107  0.0000
  Ge     Ge        0.347763435204037    0.762953797880117    0.889084472342348  0.0000
  Ge     Ge        0.853431937636683    0.749945153479939    0.890472445100749  0.0000
  Ge     Ge        0.149188591245563    0.767967938665531    0.105564432183473  0.0000
  Ge     Ge        0.153029087774075    0.254544420964922    0.107896876305265  0.0000
  Ge     Ge        0.859190677263667    0.258537889983339    0.883263040427922  0.0000
  Ge     Ge        0.267108614471287    0.411334801641964    0.317249746378789  0.0000
  Ge     Ge        0.676748781516383    0.399786244949857    0.657738255211614  0.0000
  Ge     Ge        0.676920573252817    0.605513076823859    0.675151912065168  0.0000
  Ge     Ge        0.268657413552244    0.614003321686384    0.329353776149531  0.0000
  Ge     Ge        0.767397785029316    0.913943260737066    0.311693826769548  0.0000
  Ge     Ge        0.171464629016675    0.901189685282035    0.652817610066560  0.0000
  Ge     Ge        0.174056805493409    0.103236347537068    0.665598518407491  0.0000
  Ge     Ge        0.776064096382167    0.117254270937804    0.329148310056407  0.0000
  Ge     Ge        0.370016275464371    0.400152108578719    0.682116742150548  0.0000
  Ge     Ge        0.575922080988675    0.410933402874908    0.301242322953165  0.0000
  Ge     Ge        0.578984038529763    0.614306741257712    0.318743057780619  0.0000
  Ge     Ge        0.368375022680901    0.603439365561017    0.694722921587838  0.0000
  Ge     Ge        0.864422615998354    0.904343045929345    0.674463110284257  0.0000
  Si     Si        0.069516166023536    0.913381557213208    0.303143501646481  0.0000
  Si     Si        0.078193057137780    0.112171284240370    0.317648542697492  0.0000
  Si     Si        0.869410235296595    0.103143144915384    0.683276597642249  0.0000
  O1     O1        0.523521775138404    0.238803655897203    0.942940853094410  0.0000
  O1     O1        0.519714886836641    0.769312859070153    0.939891589001717  0.0000
  O1     O1        0.025363754489862    0.749678497493585    0.947708263110445  0.0000
  O1     O1        0.030393432963862    0.263100379010218    0.945368214401203  0.0000
  O1     O1        0.295175190869016    0.159069786541782    0.783606736524388  0.0000
  O1     O1        0.662322699890022    0.188162768502811    0.232505405948520  0.0000
  O1     O1        0.648499262573801    0.851196340135830    0.203924596374230  0.0000
  O1     O1        0.295147404660346    0.836092080394847    0.749365136543042  0.0000
  O1     O1        0.805278881195471    0.660756507521932    0.786663173011942  0.0000
  O1     O1        0.155912028171593    0.686747618380024    0.230616578364301  0.0000
  O1     O1        0.151947316833465    0.342256244700499    0.216239636028367  0.0000
  O1     O1        0.806518387050191    0.339666482856832    0.759631550172505  0.0000
  O1     O1        0.302285090920704    0.334667201370370    0.789011064531735  0.0000
  O1     O1        0.630960824584181    0.359735097272762    0.166051306412094  0.0000
  O1     O1        0.641946015597403    0.672954252619510    0.199637913881733  0.0000
  O1     O1        0.305043739761103    0.664821369310934    0.812116080628598  0.0000
  O1     O1        0.798556284565979    0.838804079722333    0.782298737080155  0.0000
  O3     O3        0.132380647332496    0.865023207382382    0.186397317271085  0.0000
  O3     O3        0.143773584726087    0.162067044616996    0.205695290791283  0.0000
  O3     O3        0.814777665173777    0.162537680744284    0.793954288987394  0.0000
  O1     O1        0.300935140074683    0.246902298726374    0.055778869439490  0.0000
  O1     O1        0.797317868236733    0.265010827366095    0.036795068229390  0.0000
  O1     O1        0.796055085853169    0.753541080957070    0.046892913484953  0.0000
  O1     O1        0.293822119171498    0.776645783798963    0.046991772005212  0.0000
  O1     O1        0.404201820517788    0.414075597380032    0.245026770352092  0.0000
  O1     O1        0.542380015805950    0.393960486271258    0.735391002858246  0.0000
  O1     O1        0.540717738622788    0.605240948715839    0.749280311373922  0.0000
  O1     O1        0.407186921554205    0.616039679876360    0.259299407490045  0.0000
  O3     O3        0.910026514603238    0.909070857210222    0.245416443793764  0.0000
  O1     O1        0.035729973405104    0.894630124750129    0.726954663311379  0.0000
  O3     O3        0.030690960439979    0.101994423971020    0.729155205440266  0.0000
  O3     O3        0.919074882358270    0.124979348488294    0.264633710000333  0.0000
  O1     O1        0.319234013718085    0.373986484279948    0.496950277749572  0.0000
  O1     O1        0.628889204673302    0.365515233116660    0.475750338453883  0.0000
  O1     O1        0.629224256385891    0.649870147640013    0.499298141826437  0.0000
  O1     O1        0.316109575712682    0.640687244494149    0.514307275476342  0.0000
  O1     O1        0.806357274780445    0.876490309552751    0.491101222171009  0.0000
  O3     O3        0.119597743509057    0.871602576204557    0.466451497957606  0.0000
  O3     O3        0.135383954461396    0.145054959731731    0.485913280698441  0.0000
  O3     O3        0.818837372654915    0.140660932166935    0.516645463385047  0.0000
  O1     O1        0.204897219436307    0.512886912941521    0.314197094865353  0.0000
  O1     O1        0.727310587024966    0.502933423616693    0.660110909624407  0.0000
  O1     O1        0.713512277134125    0.016976652804485    0.303597018942945  0.0000
  O1     O1        0.231880409039272    0.001815674309992    0.666823561305861  0.0000
  O1     O1        0.316417366347298    0.501517913902801    0.701258297320086  0.0000
  O1     O1        0.635148303664691    0.512142795423600    0.315983132080167  0.0000
  O3     O3        0.816416875897323    0.008702265293881    0.689741206352809  0.0000
  O2     O2        0.113200084544049    0.011879526388579    0.319490744552262  0.0000
