data_c00075.vasp
_audit_creation_method             Generated by GULP
_audit_author_name                 Salvador R. G. Balestra
_symmetry_space_group_name_H-M     'P 1             '
_symmetry_Int_Tables_number        1

loop_
_symmetry_equiv_pos_site_id
_symmetry_equiv_pos_as_xyz
_cell_length_a                       10.2588
_cell_length_b                       15.8197
_cell_length_c                        9.2521
_cell_angle_alpha                   90.3392
_cell_angle_beta                   105.0930
_cell_angle_gamma                   90.6169

loop_
_atom_site_label
_atom_site_type_symbol
_atom_site_fract_x
_atom_site_fract_y
_atom_site_fract_z
_atom_site_charge
  Ge     Ge        0.351599999999962    0.244500000000016    0.893900000000031  0.0000
  Ge     Ge        0.655203622902237    0.221133810904404    0.095861037747095  0.0000
  Ge     Ge        0.660139469045596    0.735386589692607    0.103212335877546  0.0000
  Ge     Ge        0.357354463851128    0.743467587077738    0.891976352936361  0.0000
  Ge     Ge        0.857962148592487    0.745856864812430    0.886210457877488  0.0000
  Ge     Ge        0.154059082911573    0.726892193812525    0.100679354735773  0.0000
  Ge     Ge        0.142338126296648    0.234094184122096    0.103030620629938  0.0000
  Ge     Ge        0.326840437196649    0.374592389742146    0.333792188332875  0.0000
  Ge     Ge        0.736961775011620    0.390370984349591    0.685244663572204  0.0000
  Ge     Ge        0.737512799630321    0.591674193702004    0.662237703090091  0.0000
  Ge     Ge        0.330057736251653    0.579111203869279    0.307741310127590  0.0000
  Ge     Ge        0.834890542433864    0.875218474199730    0.340995310333767  0.0000
  Ge     Ge        0.242041500668431    0.898413022918243    0.683527308645532  0.0000
  Ge     Ge        0.231843804414771    0.099221928612498    0.656609584536023  0.0000
  Ge     Ge        0.825096093129126    0.076853048499299    0.314304107455570  0.0000
  Ge     Ge        0.422771039282557    0.393980636319698    0.690844714108777  0.0000
  Ge     Ge        0.639403532339433    0.372211465981491    0.319435344399664  0.0000
  Ge     Ge        0.642358524136726    0.574548294361686    0.295072796386474  0.0000
  Ge     Ge        0.423035198154317    0.596244387574496    0.664984381659516  0.0000
  Ge     Ge        0.145236521096036    0.879866067382038    0.322104615275300  0.0000
  Ge     Ge        0.918552031038680    0.094961886106102    0.670185986220102  0.0000
  Si     Si        0.848757592272764    0.237485460492684    0.887696475546653  0.0000
  Si     Si        0.933651393594402    0.895897616834531    0.691242831483270  0.0000
  Si     Si        0.135029877772181    0.077722946295551    0.302899719604022  0.0000
  O1     O1        0.482082847477322    0.220472198024894    0.044150028825680  0.0000
  O1     O1        0.485992079410134    0.740564064413234    0.050663749374810  0.0000
  O1     O1        0.980613803767863    0.726189890643671    0.046401463294725  0.0000
  O3     O3        0.967609975756957    0.239590740901129    0.039604023492820  0.0000
  O1     O1        0.344883054748411    0.172935720517753    0.750812814877333  0.0000
  O1     O1        0.706119217309499    0.127448223795895    0.181553976204151  0.0000
  O1     O1        0.712602371953879    0.807067815266780    0.246674026465001  0.0000
  O1     O1        0.359497942585388    0.837390102727746    0.799101833307480  0.0000
  O1     O1        0.850840928861227    0.665802647970359    0.758529872463161  0.0000
  O1     O1        0.203286478218249    0.634029022712324    0.191615603334182  0.0000
  O1     O1        0.196532683903626    0.312928904411329    0.231861141182857  0.0000
  O3     O3        0.853323311920696    0.321518337999501    0.791379713053121  0.0000
  O1     O1        0.367188402596414    0.343573225862211    0.826566560282800  0.0000
  O1     O1        0.709972923896097    0.302669705822217    0.221089807955026  0.0000
  O1     O1        0.704294562431763    0.636642981834248    0.176896579073729  0.0000
  O1     O1        0.354804372973326    0.660072338528677    0.772931288700020  0.0000
  O3     O3        0.881332060501954    0.843049624297548    0.811973313904060  0.0000
  O1     O1        0.212323175269888    0.812483912551274    0.217431339518514  0.0000
  O3     O3        0.184580432692536    0.136749999876709    0.187528445957991  0.0000
  O3     O3        0.852211129163160    0.154255884766339    0.789083870875682  0.0000
  O1     O1        0.205327685934957    0.242329158223428    0.951091352459257  0.0000
  O3     O3        0.708076187065323    0.235195551001542    0.934610070484041  0.0000
  O1     O1        0.711813505927205    0.753085882083882    0.944841808044417  0.0000
  O1     O1        0.207281416050494    0.736317379343992    0.941547107121813  0.0000
  O1     O1        0.465257372872963    0.366452922136118    0.261847267716914  0.0000
  O1     O1        0.596122948768083    0.399421223547066    0.750099144026271  0.0000
  O1     O1        0.596237698699668    0.597443554791342    0.729354859216416  0.0000
  O1     O1        0.468545213262946    0.574276014072887    0.236693023992246  0.0000
  O1     O1        0.972280209697597    0.868951895511548    0.268047613087549  0.0000
  O3     O3        0.095348077271503    0.904109878991662    0.743360650760018  0.0000
  O1     O1        0.090150484608738    0.105688746686083    0.722977360505302  0.0000
  O3     O3        0.973022145452375    0.071175030774752    0.258324590522044  0.0000
  O1     O1        0.371769549846966    0.344784339353955    0.518605186475387  0.0000
  O1     O1        0.688035319134199    0.350098355184292    0.506611170192051  0.0000
  O1     O1        0.692513144965520    0.613946374819044    0.475044460921220  0.0000
  O1     O1        0.377867523945536    0.626946961681269    0.481201678992643  0.0000
  O3     O3        0.888225341711025    0.850108674188809    0.529680753129736  0.0000
  O1     O1        0.203938266547246    0.855018930911788    0.507206821621885  0.0000
  O3     O3        0.183696283709979    0.119814636374249    0.467266663434036  0.0000
  O1     O1        0.855163797362673    0.124938320467164    0.487254649373133  0.0000
  O1     O1        0.275440586100935    0.477660196026032    0.325672195510618  0.0000
  O1     O1        0.802782044189838    0.490932002355696    0.685555688592861  0.0000
  O1     O1        0.770672790234586    0.975086370414681    0.325045443166133  0.0000
  O1     O1        0.300273646802451    0.000331807279155    0.683101594905352  0.0000
  O1     O1        0.363069652684810    0.495019513471861    0.673073807453741  0.0000
  O1     O1        0.695315959605909    0.472467780387109    0.293391690557088  0.0000
  O3     O3        0.872498599500357    0.989600955298357    0.678866190938074  0.0000
  O3     O3        0.193655134102384    0.984170724512865    0.302740263249419  0.0000
