data_c00007.vasp
_audit_creation_method             Generated by GULP
_audit_author_name                 Salvador R. G. Balestra
_symmetry_space_group_name_H-M     'P 1             '
_symmetry_Int_Tables_number        1

loop_
_symmetry_equiv_pos_site_id
_symmetry_equiv_pos_as_xyz
_cell_length_a                       10.3671
_cell_length_b                       15.8411
_cell_length_c                        9.2410
_cell_angle_alpha                   90.4749
_cell_angle_beta                   104.7434
_cell_angle_gamma                   89.8164

loop_
_atom_site_label
_atom_site_type_symbol
_atom_site_fract_x
_atom_site_fract_y
_atom_site_fract_z
_atom_site_charge
  Ge     Ge        0.351599999999962    0.244500000000016    0.893900000000031  0.0000
  Ge     Ge        0.648096366412286    0.222671491720903    0.103195034756311  0.0000
  Ge     Ge        0.665723420446784    0.740068031038585    0.098629723936542  0.0000
  Ge     Ge        0.366475630615204    0.739383342236810    0.891739363135485  0.0000
  Ge     Ge        0.868340807911445    0.741041991613554    0.887463207831326  0.0000
  Ge     Ge        0.161981283721736    0.732763119285347    0.106483726725149  0.0000
  Ge     Ge        0.149633626844891    0.244416343181022    0.105614664044831  0.0000
  Ge     Ge        0.851880625758372    0.233777022079421    0.894249890440711  0.0000
  Ge     Ge        0.328915066706926    0.385489027934626    0.332784161624354  0.0000
  Ge     Ge        0.737228031214022    0.387644657614071    0.679205080043118  0.0000
  Ge     Ge        0.740635537744710    0.590084935595660    0.663135504620835  0.0000
  Ge     Ge        0.336893869491496    0.589498200984444    0.330684591193448  0.0000
  Ge     Ge        0.846282687754506    0.878225191642721    0.337232669753389  0.0000
  Ge     Ge        0.245256465182603    0.891004172832615    0.668127141958457  0.0000
  Ge     Ge        0.236512269535048    0.092663081869312    0.668793129902332  0.0000
  Ge     Ge        0.828647290487297    0.081859100813154    0.321151349162659  0.0000
  Ge     Ge        0.431582901205601    0.392997202607096    0.691721737501194  0.0000
  Ge     Ge        0.635431264405429    0.380214783989645    0.313308832982087  0.0000
  Ge     Ge        0.642545246377682    0.583073863392317    0.300050987773741  0.0000
  Ge     Ge        0.134760591190758    0.085096872365038    0.302635814245512  0.0000
  Ge     Ge        0.929174422347065    0.086572015517741    0.679829573091804  0.0000
  Si     Si        0.438335566445620    0.592460516924541    0.680681416226651  0.0000
  Si     Si        0.942889134841614    0.887064993683192    0.684380162000536  0.0000
  Si     Si        0.147031741526485    0.886481089182481    0.312493070463045  0.0000
  O1     O1        0.476605117380145    0.224173638727530    0.050348003401119  0.0000
  O1     O1        0.495063520099026    0.753092354015880    0.046641623582724  0.0000
  O1     O1        0.991770397362225    0.723244516427300    0.045648455786110  0.0000
  O1     O1        0.977960551560638    0.246242878354606    0.052808959632999  0.0000
  O1     O1        0.348795254117878    0.165181863708573    0.764530151125183  0.0000
  O1     O1        0.697275123990453    0.134487803518136    0.208751487638501  0.0000
  O1     O1        0.726745318812588    0.813707062171927    0.235655743958775  0.0000
  O1     O1        0.358310655667503    0.823188570061429    0.772264752850288  0.0000
  O1     O1        0.857183632518123    0.657824082397024    0.765227775971029  0.0000
  O1     O1        0.213287179975917    0.651122314627445    0.227150917144326  0.0000
  O1     O1        0.200631814740648    0.325847756399242    0.229618476412854  0.0000
  O1     O1        0.852644644765304    0.318401652406205    0.778380318392321  0.0000
  O1     O1        0.366909918638047    0.341171855081470    0.817535373296263  0.0000
  O1     O1        0.703028578376610    0.310817583610909    0.211773833327066  0.0000
  O1     O1        0.702546874240060    0.642042194583657    0.177821048604315  0.0000
  O3     O3        0.383734218394971    0.646982030058623    0.797964057533219  0.0000
  O3     O3        0.892673261948667    0.835303177898157    0.806564181589593  0.0000
  O3     O3        0.205945209796657    0.826958108315241    0.204507042726226  0.0000
  O1     O1        0.200247800596429    0.149476522876295    0.193275794175353  0.0000
  O1     O1        0.861128364179545    0.140448034274169    0.801554940576884  0.0000
  O1     O1        0.204520017306136    0.250503406218950    0.947032891287298  0.0000
  O1     O1        0.703638132581602    0.226824485456704    0.944614581958890  0.0000
  O1     O1        0.722218879818991    0.751207530259596    0.941978448643236  0.0000
  O1     O1        0.222771022153495    0.730766872043097    0.950811501211494  0.0000
  O1     O1        0.463443941749737    0.379184161225267    0.255979772086397  0.0000
  O1     O1        0.601735119805191    0.388066362839114    0.754699257987556  0.0000
  O3     O3        0.598975631803872    0.591422333472563    0.730971392420021  0.0000
  O1     O1        0.470844739979684    0.589079492844218    0.253283347697771  0.0000
  O3     O3        0.986252239297019    0.879381124886224    0.266925856818126  0.0000
  O3     O3        0.103065860235771    0.891405036398087    0.733941565305845  0.0000
  O1     O1        0.099170785131661    0.095037652444742    0.741223664302568  0.0000
  O1     O1        0.963655780363489    0.088424380262368    0.245440232669290  0.0000
  O1     O1        0.376024015738254    0.350933447883684    0.514914874470898  0.0000
  O1     O1        0.680402511274516    0.352675378392378    0.498159020966926  0.0000
  O1     O1        0.701323404014094    0.620173359320453    0.480271656774523  0.0000
  O3     O3        0.390380862590571    0.628142285939385    0.512923048109841  0.0000
  O3     O3        0.894266957015456    0.844015753304869    0.521139389342768  0.0000
  O3     O3        0.202894524889413    0.858015021655035    0.483543389918482  0.0000
  O1     O1        0.183377832017533    0.120032864889882    0.484382145720221  0.0000
  O1     O1        0.872744344991796    0.123025097644823    0.500092168223088  0.0000
  O1     O1        0.277901708906271    0.488768347158932    0.331267275001938  0.0000
  O1     O1        0.799895398374249    0.487969983026504    0.679639261759320  0.0000
  O1     O1        0.783457690121224    0.978329321666210    0.328536098932116  0.0000
  O1     O1        0.304077902556394    0.992584473549840    0.682561450739614  0.0000
  O3     O3        0.382604246944864    0.497922606640193    0.679342111016713  0.0000
  O1     O1        0.691854257682586    0.480193496891608    0.293707755049854  0.0000
  O3     O3        0.883626698953504    0.981076506319867    0.674169144005928  0.0000
  O3     O3        0.190577211907926    0.982352082621149    0.296198826523985  0.0000
