data_c00032.vasp
_audit_creation_method             Generated by GULP
_audit_author_name                 Salvador R. G. Balestra
_symmetry_space_group_name_H-M     'P 1             '
_symmetry_Int_Tables_number        1

loop_
_symmetry_equiv_pos_site_id
_symmetry_equiv_pos_as_xyz
_cell_length_a                       10.3007
_cell_length_b                       15.8486
_cell_length_c                        9.2319
_cell_angle_alpha                   90.1353
_cell_angle_beta                   105.3241
_cell_angle_gamma                   90.6018

loop_
_atom_site_label
_atom_site_type_symbol
_atom_site_fract_x
_atom_site_fract_y
_atom_site_fract_z
_atom_site_charge
  Ge     Ge        0.351599999999962    0.244500000000016    0.893900000000031  0.0000
  Ge     Ge        0.646928540887922    0.222922659497295    0.107016433138242  0.0000
  Ge     Ge        0.635368306843339    0.742614321226336    0.105778243089370  0.0000
  Ge     Ge        0.331719318403854    0.738039280335752    0.893992641380452  0.0000
  Ge     Ge        0.833807533587534    0.751563302270889    0.889771659016514  0.0000
  Ge     Ge        0.128545462849440    0.720660837143419    0.102180353228811  0.0000
  Ge     Ge        0.146855666628565    0.235032259758442    0.103361681770070  0.0000
  Ge     Ge        0.842064674535941    0.242484079722849    0.890241119021818  0.0000
  Ge     Ge        0.321539734246483    0.373169440392423    0.344473222831460  0.0000
  Ge     Ge        0.729859672748390    0.400191287222723    0.685249041214490  0.0000
  Ge     Ge        0.711741570962765    0.600489414559332    0.662467788120561  0.0000
  Ge     Ge        0.306984898932207    0.575635534898948    0.310931637464535  0.0000
  Ge     Ge        0.814074857872755    0.880787370015924    0.340376980981111  0.0000
  Ge     Ge        0.218892191175806    0.894930790868190    0.685117283344184  0.0000
  Ge     Ge        0.219656598701502    0.097202357380891    0.661305086795596  0.0000
  Ge     Ge        0.632639639846373    0.377925131926398    0.323278066384763  0.0000
  Ge     Ge        0.616860774816365    0.580392290266472    0.295247617513708  0.0000
  Ge     Ge        0.403013725176255    0.591841294864806    0.672246438562663  0.0000
  Ge     Ge        0.123468532064237    0.873468524157390    0.323416879328967  0.0000
  Ge     Ge        0.124455889271378    0.076299228146204    0.298097149349746  0.0000
  Ge     Ge        0.907827557361719    0.096366202387035    0.664613475991913  0.0000
  Si     Si        0.819819207937247    0.078927309221398    0.311623017409673  0.0000
  Si     Si        0.421803359416278    0.394474821462607    0.694934356920877  0.0000
  Si     Si        0.911544296486601    0.899123258254014    0.692986085742416  0.0000
  O1     O1        0.473779355862254    0.219832247062520    0.052905154463733  0.0000
  O1     O1        0.461691107543041    0.740281482936964    0.052634017680732  0.0000
  O1     O1        0.955912378276627    0.725717164442116    0.047902957109650  0.0000
  O1     O1        0.973437113522331    0.239273743985879    0.046331587416034  0.0000
  O1     O1        0.337854937436666    0.167012220919226    0.761195442007791  0.0000
  O3     O3        0.702756884690178    0.131103036744757    0.201779030954745  0.0000
  O1     O1        0.684412206149394    0.818805786215715    0.242913584533790  0.0000
  O1     O1        0.333693650532920    0.831433793729987    0.799320442135072  0.0000
  O1     O1        0.824053749606784    0.675242394348064    0.755606823997900  0.0000
  O1     O1        0.176346567938275    0.627693946827065    0.193558502269257  0.0000
  O1     O1        0.200159066908667    0.304627176553450    0.249939120053580  0.0000
  O1     O1        0.844429516541225    0.338635654691398    0.803871591636325  0.0000
  O3     O3        0.380251873173139    0.341701839679364    0.823159757068180  0.0000
  O1     O1        0.699912351764990    0.309217865626077    0.221148411795174  0.0000
  O1     O1        0.682468149729843    0.645136511567182    0.183877287483671  0.0000
  O1     O1        0.330108121219570    0.651827027851062    0.780846510932198  0.0000
  O3     O3        0.860815647191594    0.848600197925655    0.817439401991736  0.0000
  O1     O1        0.189685780223011    0.803715358942571    0.222876443890762  0.0000
  O1     O1        0.183325531493677    0.134671283403772    0.173568106695764  0.0000
  O1     O1        0.834075901775745    0.162270068826743    0.762724005850070  0.0000
  O1     O1        0.205859980496759    0.254574040172829    0.950976649146150  0.0000
  O1     O1        0.695474559017747    0.232693868317596    0.944908028125359  0.0000
  O1     O1        0.688888505536764    0.760222753282596    0.948439005059787  0.0000
  O1     O1        0.182451392943783    0.730617495031842    0.943341977622887  0.0000
  O1     O1        0.459496801992997    0.368547975171669    0.273194712614600  0.0000
  O3     O3        0.582238683644342    0.407294206543975    0.740911893031880  0.0000
  O1     O1        0.574484415544439    0.604189904387028    0.736016641223229  0.0000
  O1     O1        0.443543285677734    0.576308188361303    0.236756632497874  0.0000
  O1     O1        0.949722427160399    0.866906849429631    0.268695710736508  0.0000
  O3     O3        0.073123257485063    0.904251190765467    0.744059635698541  0.0000
  O1     O1        0.079396422509257    0.106112711119866    0.728922307620422  0.0000
  O3     O3        0.949193732292541    0.074224863428391    0.245678996609615  0.0000
  O3     O3        0.372976119521103    0.347680523433350    0.534219777922191  0.0000
  O1     O1        0.693867722569292    0.355505900483468    0.510023529845248  0.0000
  O1     O1        0.658283587292367    0.621188342535826    0.474784917239760  0.0000
  O1     O1        0.350680567398094    0.620788739730243    0.487012143353458  0.0000
  O3     O3        0.860617594633960    0.855007352118723    0.529859682421568  0.0000
  O1     O1        0.177281923556944    0.849729047024583    0.510215378208209  0.0000
  O1     O1        0.179072330388510    0.120528296943137    0.473953557099752  0.0000
  O3     O3        0.863910253850347    0.121962986074898    0.475710400710574  0.0000
  O1     O1        0.257871510202957    0.472907224663818    0.325494136232763  0.0000
  O1     O1        0.785157221157833    0.502454962344782    0.683614163876165  0.0000
  O3     O3        0.764859177896557    0.984999048488164    0.326064284514496  0.0000
  O1     O1        0.279833357001061    0.995724573214705    0.681788536007031  0.0000
  O3     O3        0.356397480458063    0.486685530518234    0.682104145575410  0.0000
  O1     O1        0.677616186599400    0.480266248514880    0.294616332110336  0.0000
  O3     O3        0.855751769831301    0.993776650125036    0.683810109525054  0.0000
  O1     O1        0.176940743634574    0.974430391721305    0.299239399046031  0.0000
