data_c00038.vasp
_audit_creation_method             Generated by GULP
_audit_author_name                 Salvador R. G. Balestra
_symmetry_space_group_name_H-M     'P 1             '
_symmetry_Int_Tables_number        1

loop_
_symmetry_equiv_pos_site_id
_symmetry_equiv_pos_as_xyz
_cell_length_a                       10.0725
_cell_length_b                       15.7605
_cell_length_c                        9.3383
_cell_angle_alpha                   89.1560
_cell_angle_beta                   105.5130
_cell_angle_gamma                   89.5769

loop_
_atom_site_label
_atom_site_type_symbol
_atom_site_fract_x
_atom_site_fract_y
_atom_site_fract_z
_atom_site_charge
  Ge     Ge        0.351599999999962    0.244500000000016    0.893900000000031  0.0000
  Ge     Ge        0.653375514175966    0.263698140996400    0.110785665300796  0.0000
  Ge     Ge        0.661225544985774    0.765981468154426    0.113227863217208  0.0000
  Ge     Ge        0.361092783276140    0.753166188818365    0.885655235828595  0.0000
  Ge     Ge        0.855413874639484    0.745624134867981    0.899386661112248  0.0000
  Ge     Ge        0.161014710947798    0.770202768072391    0.102566131154264  0.0000
  Ge     Ge        0.157749639378920    0.266975589259818    0.110812815880674  0.0000
  Ge     Ge        0.852683493034303    0.252831364130101    0.896071497124728  0.0000
  Ge     Ge        0.257166725799575    0.422895152342703    0.313644209953889  0.0000
  Ge     Ge        0.671233655330491    0.394722333030292    0.661503183245433  0.0000
  Ge     Ge        0.676281240109345    0.598287083846266    0.697160984119837  0.0000
  Ge     Ge        0.275666309012478    0.625489541875831    0.342962412326753  0.0000
  Ge     Ge        0.771112444496091    0.923354952208408    0.307015888446398  0.0000
  Ge     Ge        0.182802598220123    0.899666701706681    0.659978295389936  0.0000
  Ge     Ge        0.350005576473879    0.398578106105259    0.666003577662677  0.0000
  Ge     Ge        0.578146103118724    0.416679668363083    0.308811967071700  0.0000
  Ge     Ge        0.596284347118284    0.621646118710259    0.342912833699025  0.0000
  Ge     Ge        0.863656233821962    0.893689401592459    0.666916590027825  0.0000
  Ge     Ge        0.091914845753310    0.921034795897204    0.302697244718744  0.0000
  Ge     Ge        0.095371658123874    0.122704079108292    0.346380873244739  0.0000
  Ge     Ge        0.864087668568789    0.095683028565517    0.695023755720857  0.0000
  Si     Si        0.180111447554224    0.099210541743493    0.692122146807838  0.0000
  Si     Si        0.777996579970422    0.120577833890367    0.344911479204990  0.0000
  Si     Si        0.359275978943111    0.598299399557898    0.688908296449171  0.0000
  O1     O1        0.529186940717103    0.241752254271355    0.950882461160631  0.0000
  O1     O1        0.537905359499179    0.751573125318354    0.950604497576639  0.0000
  O1     O1        0.032298540673197    0.749085509358192    0.946376324101053  0.0000
  O1     O1        0.030195869288565    0.252351784455835    0.951830704588642  0.0000
  O3     O3        0.295901112846798    0.149542101752284    0.809849191841193  0.0000
  O3     O3        0.667811385375281    0.188308371593974    0.251515600335939  0.0000
  O1     O1        0.647989763474658    0.862478482277622    0.193782216931013  0.0000
  O1     O1        0.313321152777121    0.836660797015381    0.763273676754253  0.0000
  O1     O1        0.796810021695912    0.648674963568928    0.830770329341052  0.0000
  O1     O1        0.160145207747447    0.698323403740749    0.243714097675814  0.0000
  O1     O1        0.142333085653702    0.364600018086149    0.185856080228257  0.0000
  O1     O1        0.798961547714282    0.329978069010255    0.763214878815442  0.0000
  O1     O1        0.290169663312687    0.330022337145121    0.777222994425378  0.0000
  O1     O1        0.628826360979760    0.361906287728139    0.175430646332084  0.0000
  O1     O1        0.673351018062056    0.685414468457717    0.240963079075200  0.0000
  O3     O3        0.304247183001249    0.658001327338348    0.798925746868935  0.0000
  O1     O1        0.792969157906639    0.820884462240632    0.760659330123272  0.0000
  O1     O1        0.151227388469715    0.869678639289907    0.171556344822523  0.0000
  O1     O1        0.164423914034822    0.193703753141339    0.250763677696899  0.0000
  O1     O1        0.804984916749730    0.155956652438086    0.814504072980621  0.0000
  O1     O1        0.307611500417533    0.257629722492062    0.056991531079285  0.0000
  O1     O1        0.802515866692337    0.267071185366969    0.054331120927740  0.0000
  O1     O1        0.813299485684268    0.765859143891941    0.060962007698371  0.0000
  O1     O1        0.309429155757834    0.761538908719276    0.045392021312483  0.0000
  O1     O1        0.419414713612875    0.384395449951268    0.320075075761313  0.0000
  O1     O1        0.509485445599552    0.360278263937665    0.662195469584505  0.0000
  O3     O3        0.509612439658629    0.632461200306400    0.686418816334394  0.0000
  O1     O1        0.436213225992159    0.660893937737068    0.342303700108246  0.0000
  O1     O1        0.915361687249139    0.924785195972344    0.243331773791116  0.0000
  O1     O1        0.041185413940135    0.887604111134521    0.726641750904725  0.0000
  O3     O3        0.042808692587993    0.091764860902553    0.747597668488876  0.0000
  O3     O3        0.916317203040462    0.124061051752187    0.289333440394680  0.0000
  O1     O1        0.240408465905956    0.407718049229925    0.491436914683773  0.0000
  O1     O1        0.687943848914482    0.402237309120564    0.483776443691206  0.0000
  O1     O1        0.698465739649092    0.613935787590619    0.522327969369426  0.0000
  O3     O3        0.261288026266089    0.608927108568841    0.522022193326900  0.0000
  O1     O1        0.814615317054223    0.875560422695374    0.480292061079101  0.0000
  O1     O1        0.145112673895266    0.872909635442996    0.475992032978529  0.0000
  O3     O3        0.145752226430842    0.147511140900397    0.533111442210880  0.0000
  O3     O3        0.811562420953326    0.141305796548973    0.518091470180502  0.0000
  O1     O1        0.243783884614567    0.527655683674975    0.261740609172374  0.0000
  O1     O1        0.690053913859713    0.492718199999184    0.741746234289965  0.0000
  O3     O3        0.715318095772135    0.026287668825038    0.320074091422636  0.0000
  O3     O3        0.233653191168110    0.004844800439210    0.672393215222885  0.0000
  O3     O3        0.367329405414735    0.500553160213071    0.740308283376918  0.0000
  O1     O1        0.571923074950016    0.522923860092870    0.264462066617627  0.0000
  O1     O1        0.808049980938017    0.994139986271171    0.696568410428490  0.0000
  O1     O1        0.150868687163032    0.023333843210495    0.317070781186240  0.0000
