data_c00045.vasp
_audit_creation_method             Generated by GULP
_audit_author_name                 Salvador R. G. Balestra
_symmetry_space_group_name_H-M     'P 1             '
_symmetry_Int_Tables_number        1

loop_
_symmetry_equiv_pos_site_id
_symmetry_equiv_pos_as_xyz
_cell_length_a                       10.3469
_cell_length_b                       15.8583
_cell_length_c                        9.2613
_cell_angle_alpha                   89.1569
_cell_angle_beta                   105.7067
_cell_angle_gamma                   90.0417

loop_
_atom_site_label
_atom_site_type_symbol
_atom_site_fract_x
_atom_site_fract_y
_atom_site_fract_z
_atom_site_charge
  Ge     Ge        0.351599999999962    0.244500000000016    0.893900000000031  0.0000
  Ge     Ge        0.651319632842943    0.266258317533689    0.099927974855697  0.0000
  Ge     Ge        0.662474661776457    0.766415625741956    0.098447222808769  0.0000
  Ge     Ge        0.361203372200395    0.768624947987707    0.887999074769236  0.0000
  Ge     Ge        0.869786315030370    0.747209562028713    0.896993943567496  0.0000
  Ge     Ge        0.170182292216883    0.774063073404098    0.108977110878166  0.0000
  Ge     Ge        0.159759472588132    0.262925053196911    0.114495549381664  0.0000
  Ge     Ge        0.858418241344696    0.258877448322851    0.895899505377210  0.0000
  Ge     Ge        0.270678973986034    0.421515461615124    0.316843675665408  0.0000
  Ge     Ge        0.680006222808654    0.398956714821345    0.661963784920914  0.0000
  Ge     Ge        0.690526832573102    0.604085164405546    0.685854951986926  0.0000
  Ge     Ge        0.285295330701908    0.620979296950523    0.334664090911861  0.0000
  Ge     Ge        0.783854046347072    0.918648506111414    0.309721902557903  0.0000
  Ge     Ge        0.789231651424374    0.121634498232402    0.337447359285990  0.0000
  Ge     Ge        0.371939764438162    0.402605027484984    0.683905994086163  0.0000
  Ge     Ge        0.581773469693620    0.417320971780876    0.304340116460161  0.0000
  Ge     Ge        0.595103681013145    0.618780982622696    0.326102312461925  0.0000
  Ge     Ge        0.383464951465771    0.605872075332119    0.702686396133671  0.0000
  Ge     Ge        0.879918666040236    0.898988628363173    0.672503777804371  0.0000
  Ge     Ge        0.096118950831993    0.923694295575881    0.310678317975726  0.0000
  Ge     Ge        0.879256978491308    0.103165441598384    0.698257745827409  0.0000
  Si     Si        0.183015813977993    0.906606690871988    0.666476272160516  0.0000
  Si     Si        0.179459283157461    0.102840729886893    0.686061735111928  0.0000
  Si     Si        0.094471059682463    0.120290567738369    0.335942407044128  0.0000
  O1     O1        0.524143789787999    0.239933868306264    0.946918698344775  0.0000
  O1     O1        0.534147485910866    0.770961399062204    0.937419091806478  0.0000
  O1     O1        0.041896910347607    0.753434031344028    0.953732712110901  0.0000
  O1     O1        0.031296719546060    0.260014096091601    0.955801024679612  0.0000
  O3     O3        0.300252231885545    0.156040031108269    0.785471659280438  0.0000
  O1     O1        0.670386055694172    0.189616527194473    0.236951112107520  0.0000
  O1     O1        0.663178045667640    0.857819003316305    0.196584391838361  0.0000
  O3     O3        0.305026409531499    0.850275777507321    0.760311009859422  0.0000
  O1     O1        0.822683880560047    0.654854473958321    0.804004144227262  0.0000
  O1     O1        0.174129270794902    0.695682628916289    0.240395491073107  0.0000
  O1     O1        0.156543820039402    0.357561122609766    0.201314299271832  0.0000
  O1     O1        0.808056332081833    0.336421376819764    0.762014301900440  0.0000
  O1     O1        0.302421209760641    0.334138630331309    0.786070253480391  0.0000
  O1     O1        0.627126280498030    0.362881285516464    0.167887162410655  0.0000
  O1     O1        0.659368625843546    0.680375907067526    0.211003284383680  0.0000
  O1     O1        0.315369330411692    0.672418234343452    0.806417005749436  0.0000
  O1     O1        0.812499746586851    0.830793977761360    0.774691613749966  0.0000
  O1     O1        0.162802128580256    0.869703330248286    0.190778381627805  0.0000
  O3     O3        0.163358896627203    0.186040400465040    0.250099645142350  0.0000
  O1     O1        0.816200762529919    0.161309254220470    0.817030475424799  0.0000
  O1     O1        0.303083414123863    0.248543174123792    0.056224266648174  0.0000
  O1     O1        0.798126193086144    0.272951394595812    0.047041518465203  0.0000
  O1     O1        0.811786542462812    0.756787108969512    0.051394576085712  0.0000
  O1     O1        0.314288673667423    0.777255850304703    0.049825410942066  0.0000
  O1     O1        0.410290352793939    0.426131395380237    0.250820396095298  0.0000
  O1     O1        0.544735717783376    0.392954436720541    0.736781493709844  0.0000
  O1     O1        0.556377725827059    0.605313622032708    0.762423945335898  0.0000
  O1     O1        0.422656545917891    0.621626600367463    0.263642363938576  0.0000
  O1     O1        0.925376619042833    0.918221881430245    0.245799751188101  0.0000
  O3     O3        0.054748981885269    0.891788004831658    0.729816350815668  0.0000
  O3     O3        0.054035346332308    0.108459213632781    0.755382966514839  0.0000
  O3     O3        0.933437876173235    0.126071901495306    0.274491521062760  0.0000
  O1     O1        0.316132926588970    0.381143841129277    0.496584937399423  0.0000
  O1     O1        0.632163675038319    0.368486505740945    0.477578424750517  0.0000
  O1     O1        0.646611180817000    0.650291535542643    0.509831530747682  0.0000
  O1     O1        0.340647087984243    0.643233840630172    0.521125391178600  0.0000
  O1     O1        0.826421713117841    0.874903480241743    0.487276374774154  0.0000
  O3     O3        0.146759967639855    0.882841694306783    0.492073338695536  0.0000
  O2     O2        0.132265398866556    0.138569650083359    0.514725202606269  0.0000
  O1     O1        0.823748085847632    0.147060639419164    0.522054506103330  0.0000
  O1     O1        0.211820960042859    0.522714081753921    0.317122029311556  0.0000
  O1     O1        0.734128717342224    0.501417537468511    0.666726539155347  0.0000
  O1     O1        0.729717285062720    0.020038871248629    0.315976749918716  0.0000
  O2     O2        0.224075706737974    0.005418604793781    0.682142157179414  0.0000
  O1     O1        0.327542621318692    0.504607271584731    0.711839702820743  0.0000
  O1     O1        0.648629305655609    0.516714163310085    0.317389316101401  0.0000
  O1     O1        0.831622760909082    0.000192791492382    0.698344527665570  0.0000
  O3     O3        0.145289130180560    0.027828338104504    0.309883353970977  0.0000
