data_c00027.vasp
_audit_creation_method             Generated by GULP
_audit_author_name                 Salvador R. G. Balestra
_symmetry_space_group_name_H-M     'P 1             '
_symmetry_Int_Tables_number        1

loop_
_symmetry_equiv_pos_site_id
_symmetry_equiv_pos_as_xyz
_cell_length_a                       10.2932
_cell_length_b                       15.8274
_cell_length_c                        9.2317
_cell_angle_alpha                   89.5787
_cell_angle_beta                   105.3288
_cell_angle_gamma                   89.0654

loop_
_atom_site_label
_atom_site_type_symbol
_atom_site_fract_x
_atom_site_fract_y
_atom_site_fract_z
_atom_site_charge
  Ge     Ge        0.351599999999962    0.244500000000016    0.893900000000031  0.0000
  Ge     Ge        0.650128963801365    0.251212577672866    0.113384613368516  0.0000
  Ge     Ge        0.647789553737236    0.764311932490830    0.098107139157989  0.0000
  Ge     Ge        0.353816365003236    0.738005163913980    0.883649805492806  0.0000
  Ge     Ge        0.850676255174589    0.743436928998497    0.888897690128423  0.0000
  Ge     Ge        0.155317940768852    0.751028419887523    0.098704657564428  0.0000
  Ge     Ge        0.145847199546868    0.266140207453369    0.096996821878399  0.0000
  Ge     Ge        0.845401408574250    0.241092146673984    0.891790348653319  0.0000
  Ge     Ge        0.324575563909311    0.409952837317902    0.309243336192568  0.0000
  Ge     Ge        0.727567740663193    0.388059107985425    0.655805970056375  0.0000
  Ge     Ge        0.740829576905622    0.587093413503047    0.682387392837144  0.0000
  Ge     Ge        0.331136581365692    0.612620939272291    0.339999786993373  0.0000
  Ge     Ge        0.824093687656468    0.912103990876605    0.298923792817100  0.0000
  Ge     Ge        0.226218462702831    0.888578696817456    0.653277057279158  0.0000
  Ge     Ge        0.236158510709967    0.089691069776283    0.686335855045221  0.0000
  Ge     Ge        0.417519958953475    0.391314380918946    0.667556785330420  0.0000
  Ge     Ge        0.641418014996574    0.609877974939834    0.319988538589841  0.0000
  Ge     Ge        0.914320562468038    0.889163076494147    0.659138060293062  0.0000
  Ge     Ge        0.132926661092787    0.911823599577171    0.286213080487833  0.0000
  Ge     Ge        0.135809314073183    0.113725447024913    0.323435954259274  0.0000
  Ge     Ge        0.921322936769657    0.090274834709413    0.689920284641248  0.0000
  Si     Si        0.831191987851497    0.111341911190628    0.337100590512109  0.0000
  Si     Si        0.629823848593685    0.411415336688541    0.297452740856168  0.0000
  Si     Si        0.431199980225879    0.589363600899609    0.689453365408498  0.0000
  O1     O1        0.477593195751046    0.242831244049847    0.057485305639368  0.0000
  O1     O1        0.474840060066000    0.763703437063764    0.042372305039756  0.0000
  O1     O1        0.981357195508524    0.748448269340633    0.045500559887149  0.0000
  O1     O1        0.972923180429454    0.266755294197802    0.044729489611649  0.0000
  O1     O1        0.355380944396793    0.152362673129116    0.796868306779692  0.0000
  O3     O3        0.713841359163364    0.173633725176886    0.245915487558481  0.0000
  O1     O1        0.694164087525913    0.858970477493477    0.184673772040909  0.0000
  O1     O1        0.340503363214930    0.813995358624890    0.747361058945670  0.0000
  O1     O1        0.854408015121895    0.647313902962154    0.803048465436339  0.0000
  O1     O1        0.207227770770501    0.680045907027476    0.244403669115903  0.0000
  O1     O1        0.201612108633361    0.359746422139205    0.180240555618849  0.0000
  O1     O1        0.838819951930371    0.312045132681295    0.747318106623589  0.0000
  O1     O1        0.350095970773640    0.331745679246399    0.782083543032513  0.0000
  O3     O3        0.688547766301698    0.350377997147165    0.191383519557473  0.0000
  O1     O1        0.706935359942517    0.679336335944734    0.217524148005563  0.0000
  O3     O3        0.385628357395748    0.640216999736764    0.817273982688711  0.0000
  O1     O1        0.843507041547357    0.822528471636757    0.759723334033727  0.0000
  O1     O1        0.197690373957205    0.850541849448792    0.169124212288531  0.0000
  O1     O1        0.200878747351946    0.184483663425866    0.224151344392512  0.0000
  O1     O1        0.863592123951275    0.143130447377354    0.821392631199321  0.0000
  O1     O1        0.199975112147873    0.249414416035501    0.939969717002116  0.0000
  O1     O1        0.701403274428602    0.241576469915410    0.953011588236914  0.0000
  O1     O1        0.702152130093360    0.752987485992262    0.939911583777944  0.0000
  O1     O1        0.208595767840484    0.730093122624697    0.942467355767045  0.0000
  O3     O3        0.467706513334583    0.414702156782356    0.243784427452696  0.0000
  O1     O1        0.589169102604044    0.380470497028478    0.726348903168212  0.0000
  O3     O3        0.592250123805329    0.578755963580587    0.735983763431783  0.0000
  O1     O1        0.468939613566383    0.621596691789144    0.269138530887700  0.0000
  O1     O1        0.959331657153780    0.911819849280825    0.223903799595749  0.0000
  O1     O1        0.087307730464095    0.884177296381514    0.723803380233775  0.0000
  O1     O1        0.093807362761940    0.084824801723028    0.749868961785721  0.0000
  O3     O3        0.960098629506213    0.117205795592134    0.269475353876467  0.0000
  O1     O1        0.359189146352174    0.361832529392274    0.482648726249836  0.0000
  O3     O3        0.671159609185104    0.372310944598735    0.465155964573800  0.0000
  O1     O1        0.705459931156101    0.631569951645834    0.506214440082323  0.0000
  O3     O3        0.381648970364044    0.637706119522083    0.529556194424472  0.0000
  O1     O1        0.868868645517306    0.863748626979146    0.472368796634065  0.0000
  O1     O1        0.177728466064444    0.868959418392819    0.465015248465457  0.0000
  O1     O1        0.191379211991850    0.134953152660855    0.509862327476205  0.0000
  O3     O3        0.874577149152824    0.136631916044571    0.511716134211778  0.0000
  O1     O1        0.271491368510674    0.512104961984528    0.321976352457977  0.0000
  O1     O1        0.800527981997495    0.485257788042270    0.683748118163728  0.0000
  O3     O3        0.777937481573771    0.016001937189881    0.322971004058220  0.0000
  O1     O1        0.294169802616318    0.987966087973517    0.678722852303984  0.0000
  O3     O3        0.368721865914509    0.496566951879661    0.674328366733154  0.0000
  O3     O3        0.685701208746886    0.505226173091377    0.294516323797518  0.0000
  O1     O1        0.859473978603182    0.990360002521247    0.679109450685042  0.0000
  O1     O1        0.187789142289241    0.013299429168523    0.290641148890148  0.0000
