data_c00074.vasp
_audit_creation_method             Generated by GULP
_audit_author_name                 Salvador R. G. Balestra
_symmetry_space_group_name_H-M     'P 1             '
_symmetry_Int_Tables_number        1

loop_
_symmetry_equiv_pos_site_id
_symmetry_equiv_pos_as_xyz
_cell_length_a                       10.3064
_cell_length_b                       15.8188
_cell_length_c                        9.2245
_cell_angle_alpha                   90.9986
_cell_angle_beta                   105.1951
_cell_angle_gamma                   90.1950

loop_
_atom_site_label
_atom_site_type_symbol
_atom_site_fract_x
_atom_site_fract_y
_atom_site_fract_z
_atom_site_charge
  Ge     Ge        0.351599999999962    0.244500000000016    0.893900000000031  0.0000
  Ge     Ge        0.653583259516799    0.217287804499773    0.097545324467537  0.0000
  Ge     Ge        0.654648504263988    0.733434893748895    0.107683902615882  0.0000
  Ge     Ge        0.352539941204521    0.742054451497433    0.897044177128159  0.0000
  Ge     Ge        0.850426233534108    0.746275652416429    0.888803775131661  0.0000
  Ge     Ge        0.147123443261710    0.720173267568757    0.101866032949773  0.0000
  Ge     Ge        0.140801549733308    0.232509613069832    0.096704710351679  0.0000
  Ge     Ge        0.325676696504694    0.370170746032307    0.333686395014740  0.0000
  Ge     Ge        0.734695809159188    0.388526696886008    0.685264961215902  0.0000
  Ge     Ge        0.732487945690966    0.590102503819116    0.663859571471565  0.0000
  Ge     Ge        0.324445706609395    0.574693507759107    0.306531717850337  0.0000
  Ge     Ge        0.828466796866394    0.873051911601154    0.348373910769031  0.0000
  Ge     Ge        0.232347716344790    0.895575948378280    0.692536327967127  0.0000
  Ge     Ge        0.223058194310454    0.098181558047288    0.657347366556834  0.0000
  Ge     Ge        0.818106443470444    0.073140400699013    0.319992694644857  0.0000
  Ge     Ge        0.422406951363403    0.393298681735489    0.691076988015435  0.0000
  Ge     Ge        0.636927698282958    0.370296902886755    0.317441115850035  0.0000
  Ge     Ge        0.635812641411600    0.572523352404279    0.294978572252119  0.0000
  Ge     Ge        0.418802627194149    0.595273202524543    0.664790798415067  0.0000
  Ge     Ge        0.138814850904748    0.872242928549516    0.329854970486471  0.0000
  Ge     Ge        0.129455495321055    0.073944597646956    0.296544902703188  0.0000
  Si     Si        0.846608736531446    0.232800905643036    0.886279032710029  0.0000
  Si     Si        0.929154007970406    0.896158876377032    0.702044034746692  0.0000
  Si     Si        0.919724638968039    0.092501414368728    0.673088100727878  0.0000
  O1     O1        0.481171959267100    0.218723806602835    0.043076920559183  0.0000
  O1     O1        0.481285056968627    0.739189890180246    0.055816609968407  0.0000
  O1     O1        0.974548506874600    0.724820347888725    0.046929353780866  0.0000
  O3     O3        0.966049388073990    0.236968156702853    0.037291569005560  0.0000
  O1     O1        0.339214612874839    0.168897749099187    0.754682047017540  0.0000
  O1     O1        0.694704645234260    0.128136113035384    0.200683023818352  0.0000
  O1     O1        0.708892354571843    0.802788278664143    0.256319635033310  0.0000
  O1     O1        0.353204725369117    0.837161370977477    0.808813927726447  0.0000
  O1     O1        0.843239051628142    0.666249280422699    0.759066887979350  0.0000
  O1     O1        0.195078381405440    0.625703845492508    0.186666857175377  0.0000
  O1     O1        0.195506393002918    0.307904139815303    0.235233000531359  0.0000
  O3     O3        0.845934227695962    0.318299333083129    0.794358971806550  0.0000
  O1     O1        0.370144544836554    0.342674426135979    0.827543895051781  0.0000
  O1     O1        0.708443621131602    0.303055004384583    0.214494632080380  0.0000
  O1     O1        0.697356895453309    0.633912026014544    0.176896975963723  0.0000
  O1     O1        0.351440338604231    0.660177595922117    0.773221029156111  0.0000
  O3     O3        0.868768552523839    0.845225946348461    0.817607082194427  0.0000
  O1     O1        0.205946342833039    0.801422785307423    0.229499768174454  0.0000
  O1     O1        0.182935558916208    0.134329412290299    0.171549978725684  0.0000
  O2     O2        0.857987693733283    0.151234614072343    0.782007736103271  0.0000
  O1     O1        0.204418071560915    0.248228083183381    0.947537782055887  0.0000
  O3     O3        0.708925656500193    0.222196774961988    0.935855021663749  0.0000
  O1     O1        0.706224763007086    0.752992003382671    0.950102408366680  0.0000
  O1     O1        0.202916924594741    0.732109026487167    0.945192722035769  0.0000
  O1     O1        0.463530211384211    0.362431981145731    0.261186592619405  0.0000
  O1     O1        0.594930811107095    0.398871274646458    0.750463288539520  0.0000
  O1     O1        0.591308340928080    0.596239124610827    0.730038224895283  0.0000
  O1     O1        0.462768442196775    0.571612769415507    0.235743710112295  0.0000
  O1     O1        0.965323500460126    0.867850189558247    0.275530028845276  0.0000
  O3     O3        0.089772303786579    0.896066822025207    0.760021020383648  0.0000
  O3     O3        0.079745142082470    0.102565772692959    0.723666023426973  0.0000
  O1     O1        0.956707615937570    0.071054324758741    0.251097722701417  0.0000
  O1     O1        0.373092161920181    0.341995310803421    0.519497819620625  0.0000
  O1     O1        0.688110446137562    0.348474417009954    0.505227000104725  0.0000
  O1     O1        0.686276796138753    0.611875890392643    0.476199546143603  0.0000
  O1     O1        0.371364394586742    0.624407844746271    0.480073342942100  0.0000
  O3     O3        0.881352839455814    0.851659232551593    0.538651265226663  0.0000
  O1     O1        0.191605256257266    0.849595458951567    0.516663820314873  0.0000
  O1     O1        0.183118643853233    0.121353544218477    0.471693671231390  0.0000
  O3     O3        0.862225701952642    0.117771681286401    0.500952968998517  0.0000
  O1     O1        0.273715128500132    0.473286274664418    0.326616808787395  0.0000
  O1     O1        0.799352103554287    0.489557715531711    0.687803110889194  0.0000
  O1     O1        0.761064244213064    0.972285391319603    0.327009303693093  0.0000
  O1     O1        0.285306194757744    0.997215221775107    0.682310920374225  0.0000
  O1     O1        0.360793131205069    0.493870754518444    0.673640596459639  0.0000
  O1     O1        0.690192139486423    0.470713602693499    0.292845016069366  0.0000
  O2     O2        0.879652069740345    0.994055421170351    0.688768941154965  0.0000
  O1     O1        0.189699152446108    0.973261300029234    0.301836598763444  0.0000
