data_c00064.vasp
_audit_creation_method             Generated by GULP
_audit_author_name                 Salvador R. G. Balestra
_symmetry_space_group_name_H-M     'P 1             '
_symmetry_Int_Tables_number        1

loop_
_symmetry_equiv_pos_site_id
_symmetry_equiv_pos_as_xyz
_cell_length_a                       10.3198
_cell_length_b                       15.8434
_cell_length_c                        9.2524
_cell_angle_alpha                   91.0899
_cell_angle_beta                   105.7670
_cell_angle_gamma                   89.9631

loop_
_atom_site_label
_atom_site_type_symbol
_atom_site_fract_x
_atom_site_fract_y
_atom_site_fract_z
_atom_site_charge
  Ge     Ge        0.351599999999962    0.244500000000016    0.893900000000031  0.0000
  Ge     Ge        0.650950573370628    0.210524222548639    0.097807662756817  0.0000
  Ge     Ge        0.671014969459210    0.729614724394531    0.108612829387368  0.0000
  Ge     Ge        0.368407583991841    0.741867908385337    0.896823277163157  0.0000
  Ge     Ge        0.867648491762151    0.737428566485149    0.893382070194424  0.0000
  Ge     Ge        0.168778806462952    0.717007770600841    0.106413827749355  0.0000
  Ge     Ge        0.150068104442161    0.234111661297576    0.103438797290694  0.0000
  Ge     Ge        0.849612463981777    0.228875661764528    0.885045038043345  0.0000
  Ge     Ge        0.331908681767557    0.373754170627830    0.333823464653889  0.0000
  Ge     Ge        0.739361996286633    0.387600839445041    0.682098483050872  0.0000
  Ge     Ge        0.742429246364070    0.588302770967573    0.660479180864869  0.0000
  Ge     Ge        0.249353680882629    0.895604860526130    0.692556565317587  0.0000
  Ge     Ge        0.223842705684898    0.096354520202988    0.657489706607510  0.0000
  Ge     Ge        0.828795940141170    0.066616552796631    0.308679832437661  0.0000
  Ge     Ge        0.428363807975623    0.393510464354265    0.694034228619912  0.0000
  Ge     Ge        0.639205203866633    0.366268183790477    0.315439856694720  0.0000
  Ge     Ge        0.643736617479103    0.569423755565536    0.296510735907810  0.0000
  Ge     Ge        0.428556356182822    0.593940659934003    0.662735441418559  0.0000
  Ge     Ge        0.936579290185932    0.889396534602675    0.691694431654877  0.0000
  Ge     Ge        0.152521155021556    0.871560080954123    0.328510998471029  0.0000
  Ge     Ge        0.136317594141672    0.073649722867778    0.293334248810808  0.0000
  Si     Si        0.340492366312228    0.573800508687551    0.310370876318721  0.0000
  Si     Si        0.847289156567470    0.868496033514296    0.338453256366922  0.0000
  Si     Si        0.919268354039364    0.086546237984425    0.663130350121377  0.0000
  O1     O1        0.478072090388105    0.214530134440509    0.045139988915524  0.0000
  O1     O1        0.497940174337072    0.738293432773103    0.056262685738643  0.0000
  O1     O1        0.995572574235706    0.716754386380713    0.049703108291946  0.0000
  O1     O1        0.976640048442386    0.230011690806207    0.047112640155826  0.0000
  O1     O1        0.335114422696047    0.170694746165610    0.751463933221418  0.0000
  O1     O1        0.697106365303842    0.118841421522436    0.194322938561839  0.0000
  O3     O3        0.734715426201406    0.803879869371309    0.247972441718600  0.0000
  O1     O1        0.370132789074914    0.837495503885404    0.811853223603562  0.0000
  O1     O1        0.859598743330944    0.658776828301887    0.760896806227572  0.0000
  O3     O3        0.221630884644596    0.624068342997906    0.198190263176817  0.0000
  O1     O1        0.198292179991322    0.314926080181007    0.233299990003016  0.0000
  O1     O1        0.853340409412394    0.321663883810869    0.793302061377889  0.0000
  O1     O1        0.376685491217612    0.341727275074664    0.829139156162598  0.0000
  O1     O1        0.708815002147870    0.295784170503100    0.216880351545293  0.0000
  O1     O1        0.704895219626533    0.629714406692174    0.178798540404234  0.0000
  O1     O1        0.363544832930916    0.664301173602277    0.763695216077203  0.0000
  O1     O1        0.876561601208260    0.833947031470292    0.815334061003796  0.0000
  O1     O1        0.219903562523629    0.801970427444928    0.227221513228236  0.0000
  O1     O1        0.200873115246954    0.137883354838943    0.183417018003124  0.0000
  O3     O3        0.851358027839942    0.146076896956022    0.761660276007374  0.0000
  O1     O1        0.205098896863117    0.249017982247709    0.948128501456524  0.0000
  O1     O1        0.702767754938515    0.217369573561694    0.937520764799608  0.0000
  O1     O1        0.721956986841098    0.741177836364630    0.950387300521761  0.0000
  O1     O1        0.221421991673588    0.728462194449888    0.948781410640503  0.0000
  O1     O1        0.465282029251932    0.359102597401592    0.258321010499302  0.0000
  O1     O1        0.601010585826826    0.396254284403634    0.750502248521679  0.0000
  O1     O1        0.601303648274950    0.594140747144001    0.725364205629718  0.0000
  O3     O3        0.468473349174457    0.569220553164569    0.242816078479322  0.0000
  O3     O3        0.977171317216645    0.865802056172568    0.273479959493553  0.0000
  O1     O1        0.107700030686619    0.892175662645367    0.756739375984422  0.0000
  O3     O3        0.081097009991358    0.093933224540226    0.723333515113709  0.0000
  O1     O1        0.962703106864145    0.071965118687769    0.233552948063088  0.0000
  O1     O1        0.374179611714451    0.345764498094275    0.519236607579991  0.0000
  O1     O1        0.687017755960894    0.345452663975990    0.503288873719731  0.0000
  O1     O1        0.699991849523977    0.612043442129487    0.473946964222462  0.0000
  O3     O3        0.384457311252854    0.619187997358330    0.473690970198417  0.0000
  O3     O3        0.892393220610719    0.843977084397145    0.512870188265885  0.0000
  O1     O1        0.210596455132762    0.850834930110008    0.514895243996384  0.0000
  O1     O1        0.178958786995314    0.117779383129766    0.471313666340596  0.0000
  O3     O3        0.873430036196083    0.111135264145378    0.488510271576344  0.0000
  O3     O3        0.290314143433198    0.479873892342717    0.329832178348989  0.0000
  O1     O1        0.804565174600723    0.486877714088312    0.678606074082706  0.0000
  O3     O3        0.785794382594924    0.962185936217103    0.322170070403106  0.0000
  O1     O1        0.297449999855871    0.998158845984671    0.684152228766529  0.0000
  O1     O1        0.369760252110857    0.495095074367524    0.684511419764154  0.0000
  O1     O1        0.692533503322934    0.466590498130389    0.290191547157814  0.0000
  O3     O3        0.873831113122247    0.990942552210014    0.679423194635112  0.0000
  O1     O1        0.196611659089551    0.973001709129314    0.295943495719208  0.0000
