data_c00018.vasp
_audit_creation_method             Generated by GULP
_audit_author_name                 Salvador R. G. Balestra
_symmetry_space_group_name_H-M     'P 1             '
_symmetry_Int_Tables_number        1

loop_
_symmetry_equiv_pos_site_id
_symmetry_equiv_pos_as_xyz
_cell_length_a                       10.3635
_cell_length_b                       15.8012
_cell_length_c                        9.2183
_cell_angle_alpha                   90.6643
_cell_angle_beta                   105.0859
_cell_angle_gamma                   90.0296

loop_
_atom_site_label
_atom_site_type_symbol
_atom_site_fract_x
_atom_site_fract_y
_atom_site_fract_z
_atom_site_charge
  Ge     Ge        0.351599999999962    0.244500000000016    0.893900000000031  0.0000
  Ge     Ge        0.655971713776480    0.245260691008728    0.102419263426980  0.0000
  Ge     Ge        0.632163311566559    0.745370053029621    0.106256367716172  0.0000
  Ge     Ge        0.337097148134089    0.762845619249202    0.891371371079080  0.0000
  Ge     Ge        0.829590183742679    0.754306119641272    0.889244127521748  0.0000
  Ge     Ge        0.131428775796818    0.741879641626003    0.096350905914555  0.0000
  Ge     Ge        0.143874239999501    0.239474433838393    0.097008341203535  0.0000
  Ge     Ge        0.852865807519507    0.265098083820345    0.882254411798007  0.0000
  Ge     Ge        0.271584735353493    0.385620522097170    0.331855454871412  0.0000
  Ge     Ge        0.674736473045908    0.411502766165491    0.676701135491936  0.0000
  Ge     Ge        0.655778353459609    0.613681643398128    0.650450659835192  0.0000
  Ge     Ge        0.254420040629648    0.588244573700688    0.305974591310632  0.0000
  Ge     Ge        0.752817384375569    0.897894049224516    0.331892448382067  0.0000
  Ge     Ge        0.158403964573397    0.906791759989932    0.681644066472756  0.0000
  Ge     Ge        0.159734050837107    0.112112954050555    0.651085791494606  0.0000
  Ge     Ge        0.365991894572053    0.406175011786585    0.696610052613998  0.0000
  Ge     Ge        0.579178028748073    0.394871031154775    0.316007736379756  0.0000
  Ge     Ge        0.347478462739469    0.608555154824071    0.668579531889494  0.0000
  Ge     Ge        0.852164473428329    0.916097192729739    0.702821520522271  0.0000
  Ge     Ge        0.062978133719728    0.889377273643201    0.324646470100004  0.0000
  Ge     Ge        0.059845285138591    0.093051583037590    0.297406536240189  0.0000
  Si     Si        0.760056833787211    0.092998715134524    0.313819974382989  0.0000
  Si     Si        0.558504321583900    0.594193460626393    0.298618063703699  0.0000
  Si     Si        0.860469261898902    0.111659207597218    0.671122842567196  0.0000
  O1     O1        0.522887896813411    0.233335789259901    0.949126447763199  0.0000
  O1     O1        0.508683152553314    0.764820123570757    0.947192632072376  0.0000
  O1     O1        0.001059722392753    0.742724054275215    0.939806740400957  0.0000
  O1     O1        0.023628691202394    0.268405161762291    0.939888383423720  0.0000
  O1     O1        0.289011892068705    0.170601204939409    0.756014386755840  0.0000
  O3     O3        0.658431569115003    0.163055774527272    0.228708393659632  0.0000
  O1     O1        0.638384913032037    0.825332781274845    0.235938396254328  0.0000
  O1     O1        0.288002659856752    0.855646949378335    0.799588015577810  0.0000
  O1     O1        0.772288318960460    0.684881325678980    0.742325107978854  0.0000
  O1     O1        0.134807576764138    0.647551335553762    0.189507823058267  0.0000
  O1     O1        0.155860810208305    0.313650229335164    0.237557870283652  0.0000
  O1     O1        0.800501816204564    0.359055343554251    0.799323950848887  0.0000
  O1     O1        0.312436949204914    0.343684878937568    0.819252661795809  0.0000
  O1     O1        0.649565972302565    0.338475035578928    0.197977120041643  0.0000
  O3     O3        0.610483704063722    0.647976723954770    0.179546451250219  0.0000
  O1     O1        0.281362297591012    0.678189321347323    0.771747213440763  0.0000
  O1     O1        0.789976421782387    0.855062750194955    0.820713051043629  0.0000
  O1     O1        0.129973517258916    0.826018644985635    0.214146405167399  0.0000
  O1     O1        0.108626829861696    0.142142632659205    0.156963883257290  0.0000
  O3     O3        0.795970296203984    0.185227048212117    0.747976889414271  0.0000
  O1     O1        0.292714232107180    0.231817329231001    0.048553839123490  0.0000
  O1     O1        0.797769648833264    0.247166826523647    0.039571610238470  0.0000
  O1     O1        0.776312359724359    0.737333058609708    0.046699757201740  0.0000
  O1     O1        0.279924606474897    0.751997606045602    0.047561607828103  0.0000
  O1     O1        0.409083121436725    0.381701363362204    0.259346805490757  0.0000
  O1     O1        0.537678797572961    0.411028283368454    0.748572533759730  0.0000
  O1     O1        0.519614346751596    0.615177376161443    0.723637647776779  0.0000
  O3     O3        0.398692632984753    0.585061858325765    0.243446286707928  0.0000
  O1     O1        0.891330487119811    0.885832999261442    0.264732694991122  0.0000
  O1     O1        0.023108467855464    0.907462494125953    0.756457113952679  0.0000
  O3     O3        0.021224682963558    0.119983804554554    0.724502441871806  0.0000
  O3     O3        0.886556362158564    0.089425762421145    0.244196267149552  0.0000
  O1     O1        0.320556167183060    0.362282418393080    0.518752521294890  0.0000
  O1     O1        0.636510899912279    0.365590199364099    0.500493807988594  0.0000
  O3     O3        0.600653497048814    0.639352265774373    0.461593317748756  0.0000
  O1     O1        0.291515509238203    0.632926845757015    0.482317097391576  0.0000
  O1     O1        0.792008394828110    0.880158103861854    0.520860741041687  0.0000
  O1     O1        0.111077593469765    0.857851124712192    0.508225811306912  0.0000
  O1     O1        0.120305930390054    0.144108798128882    0.467342677037953  0.0000
  O2     O2        0.820143863925552    0.116770841532416    0.490055415866867  0.0000
  O1     O1        0.203490530823688    0.485598233370806    0.312428795866436  0.0000
  O1     O1        0.723864092132541    0.514407310555818    0.666062937961910  0.0000
  O3     O3        0.692008776349929    0.000997687753974    0.300608820312252  0.0000
  O1     O1        0.206606926838440    0.008122343203310    0.656842247408791  0.0000
  O1     O1        0.301382086361324    0.506081911731249    0.693760924373334  0.0000
  O3     O3        0.621527279791449    0.500927601076198    0.310251148944412  0.0000
  O3     O3        0.811598285345358    0.021701381137780    0.716839778270786  0.0000
  O1     O1        0.117038359435550    0.991305354353376    0.313519460373537  0.0000
