data_c00019.vasp
_audit_creation_method             Generated by GULP
_audit_author_name                 Salvador R. G. Balestra
_symmetry_space_group_name_H-M     'P 1             '
_symmetry_Int_Tables_number        1

loop_
_symmetry_equiv_pos_site_id
_symmetry_equiv_pos_as_xyz
_cell_length_a                       10.2414
_cell_length_b                       15.7879
_cell_length_c                        9.2388
_cell_angle_alpha                   90.1463
_cell_angle_beta                   105.2666
_cell_angle_gamma                   90.7380

loop_
_atom_site_label
_atom_site_type_symbol
_atom_site_fract_x
_atom_site_fract_y
_atom_site_fract_z
_atom_site_charge
  Ge     Ge        0.351599999999962    0.244500000000016    0.893900000000031  0.0000
  Ge     Ge        0.654150040328382    0.232415953674026    0.090885217043529  0.0000
  Ge     Ge        0.619630616106281    0.744663197407998    0.097639758072886  0.0000
  Ge     Ge        0.320776550188809    0.746061274640744    0.876638315038165  0.0000
  Ge     Ge        0.820711248623478    0.757210768497035    0.881071717467063  0.0000
  Ge     Ge        0.120313178138675    0.725669392485022    0.086035567933763  0.0000
  Ge     Ge        0.136980574189572    0.235379376010629    0.100612728912413  0.0000
  Ge     Ge        0.841984780195923    0.258185019753504    0.873735438263759  0.0000
  Ge     Ge        0.319368566403719    0.375421163304833    0.334759392213910  0.0000
  Ge     Ge        0.731909431321654    0.414073928891476    0.672939479067997  0.0000
  Ge     Ge        0.702630698081418    0.611841625489195    0.640109552913755  0.0000
  Ge     Ge        0.300994483234440    0.579510934276223    0.294696082463805  0.0000
  Ge     Ge        0.802694770241189    0.888380987302534    0.319693353514392  0.0000
  Ge     Ge        0.213176315115447    0.903864435379622    0.673371290060756  0.0000
  Ge     Ge        0.221864864267202    0.105665759092145    0.639162353558728  0.0000
  Ge     Ge        0.420059674260174    0.399311849885055    0.692634531716841  0.0000
  Ge     Ge        0.626765396652381    0.385496785716468    0.310310657188888  0.0000
  Ge     Ge        0.389429016178999    0.599953148793503    0.652509497893178  0.0000
  Ge     Ge        0.901435490762651    0.907653300082417    0.682962971105648  0.0000
  Ge     Ge        0.110749027841186    0.880116970503629    0.306773679155076  0.0000
  Ge     Ge        0.897200250474753    0.110575227565145    0.640172941170286  0.0000
  Si     Si        0.816601272045222    0.084858904496936    0.299098909114497  0.0000
  Si     Si        0.607967983848313    0.583824580960079    0.283361915848004  0.0000
  Si     Si        0.128788389385718    0.075215707362899    0.294781653843022  0.0000
  O1     O1        0.481636912169148    0.216285621365460    0.044833794886066  0.0000
  O1     O1        0.445715200327157    0.745513442959195    0.040610670447904  0.0000
  O1     O1        0.946250664997578    0.725293620424948    0.032230208760528  0.0000
  O1     O1        0.966489715263099    0.252638767455198    0.036911146490568  0.0000
  O1     O1        0.336171629143289    0.175539183666904    0.745582116153351  0.0000
  O3     O3        0.738176358227766    0.140182673761326    0.160793505935966  0.0000
  O1     O1        0.671690112046365    0.824166023822122    0.226097336769531  0.0000
  O1     O1        0.330584268568090    0.837236408474494    0.778028936482777  0.0000
  O1     O1        0.808791500390949    0.690382950192439    0.729438273898979  0.0000
  O1     O1        0.176437106372967    0.630174864911835    0.166186713599899  0.0000
  O1     O1        0.197549119780125    0.304124285435448    0.244699827170019  0.0000
  O1     O1        0.853217708946133    0.352316199139802    0.784300480849820  0.0000
  O1     O1        0.376997983088653    0.344454552038405    0.833045632780952  0.0000
  O1     O1        0.699680044678673    0.316728452346892    0.212877603442602  0.0000
  O3     O3        0.665268855942320    0.645592394025210    0.177057530500716  0.0000
  O1     O1        0.318067421793874    0.660070548072756    0.763044861734263  0.0000
  O1     O1        0.843719642244070    0.856659786808263    0.817710414419973  0.0000
  O1     O1        0.178746636413672    0.806570308511283    0.213618532831091  0.0000
  O3     O3        0.151841174743664    0.130371207915103    0.159935444783629  0.0000
  O1     O1        0.836448622559708    0.176717703364159    0.750705217475382  0.0000
  O1     O1        0.205137628302383    0.245204402199380    0.951905292843812  0.0000
  O1     O1        0.691913280075696    0.254321126048194    0.925368891288288  0.0000
  O1     O1        0.674620072368228    0.756493672974885    0.939505705679518  0.0000
  O1     O1        0.169800892405780    0.742803071898120    0.925586155101787  0.0000
  O1     O1        0.454198407432221    0.370048888594812    0.256070064649705  0.0000
  O1     O1        0.591167902202554    0.417146889562399    0.740996597040736  0.0000
  O1     O1        0.562852380721308    0.611119627314093    0.709910897412460  0.0000
  O3     O3        0.445216012357031    0.575927324147825    0.229794546254606  0.0000
  O1     O1        0.936743947321621    0.871798422463132    0.243878411951861  0.0000
  O1     O1        0.074463378526408    0.909868650820331    0.744135778705262  0.0000
  O1     O1        0.070260484533367    0.119737246930129    0.682404867255115  0.0000
  O2     O2        0.971965427336414    0.063564896946761    0.300650730421580  0.0000
  O1     O1        0.370547079134670    0.348732599142941    0.520890477131113  0.0000
  O1     O1        0.684624306851954    0.367465015935510    0.498041262942256  0.0000
  O3     O3        0.645937505013633    0.625513385726654    0.448888752443986  0.0000
  O1     O1        0.332971048086307    0.628387847685298    0.466568134809261  0.0000
  O1     O1        0.846738829331321    0.862993792535862    0.506615055944089  0.0000
  O1     O1        0.156241615972872    0.862251347472713    0.495314361210536  0.0000
  O3     O3        0.206340935219421    0.121244640219262    0.449513150047324  0.0000
  O3     O3        0.823878448011059    0.134907007075763    0.452449818424099  0.0000
  O1     O1        0.255223086080170    0.475820184932694    0.314747917566220  0.0000
  O1     O1        0.785813827418770    0.516568941344908    0.667942602021515  0.0000
  O3     O3        0.747970545009853    0.992801572831261    0.296912015965942  0.0000
  O1     O1        0.278944440475959    0.004004807165535    0.674430369624574  0.0000
  O1     O1        0.343648120909567    0.496292719283414    0.670007504770113  0.0000
  O3     O3        0.668759170050949    0.490663083198192    0.282971624940366  0.0000
  O1     O1        0.846364962765597    0.010076043947280    0.668883034475983  0.0000
  O3     O3        0.175314767157000    0.980091180404431    0.279502651760513  0.0000
