data_c00016.vasp
_audit_creation_method             Generated by GULP
_audit_author_name                 Salvador R. G. Balestra
_symmetry_space_group_name_H-M     'P 1             '
_symmetry_Int_Tables_number        1

loop_
_symmetry_equiv_pos_site_id
_symmetry_equiv_pos_as_xyz
_cell_length_a                       10.2950
_cell_length_b                       15.8639
_cell_length_c                        9.2948
_cell_angle_alpha                   90.2132
_cell_angle_beta                   105.2293
_cell_angle_gamma                   89.2798

loop_
_atom_site_label
_atom_site_type_symbol
_atom_site_fract_x
_atom_site_fract_y
_atom_site_fract_z
_atom_site_charge
  Ge     Ge        0.351599999999962    0.244500000000016    0.893900000000031  0.0000
  Ge     Ge        0.652283794304881    0.237157671182826    0.104771724393414  0.0000
  Ge     Ge        0.645851470823813    0.755496231419956    0.096605808258236  0.0000
  Ge     Ge        0.347067831251738    0.739488993417907    0.887079627568502  0.0000
  Ge     Ge        0.848041864606534    0.745176448300264    0.888585355847438  0.0000
  Ge     Ge        0.147913790520942    0.742491704271438    0.105905261800077  0.0000
  Ge     Ge        0.146728799413239    0.251955504353133    0.101479015547514  0.0000
  Ge     Ge        0.847104662352958    0.240497608159487    0.887663595079970  0.0000
  Ge     Ge        0.321532246851571    0.396277247436499    0.322565475612764  0.0000
  Ge     Ge        0.729735469782934    0.392064198602109    0.668768356911187  0.0000
  Ge     Ge        0.728768341637308    0.593416138410590    0.672783828567428  0.0000
  Ge     Ge        0.323450016523736    0.599919374822079    0.334696791695989  0.0000
  Ge     Ge        0.829897861752847    0.897571481047697    0.312069119645063  0.0000
  Ge     Ge        0.229159440135317    0.890747392654164    0.660552392849939  0.0000
  Ge     Ge        0.234733000064161    0.092046867975992    0.673025807997679  0.0000
  Ge     Ge        0.420877576806972    0.393490971604242    0.681103237615394  0.0000
  Ge     Ge        0.631007250002283    0.397059807045600    0.304415706293709  0.0000
  Ge     Ge        0.632604748634320    0.600625663167194    0.311540517858474  0.0000
  Ge     Ge        0.915386549325667    0.890371846108446    0.666402119303870  0.0000
  Ge     Ge        0.135760237134071    0.096260684353936    0.310103386648997  0.0000
  Ge     Ge        0.918578674052581    0.092873245811423    0.671000910062829  0.0000
  Si     Si        0.832374951285303    0.098602156238571    0.322442502730909  0.0000
  Si     Si        0.422618822418813    0.592388738481052    0.684589077209272  0.0000
  Si     Si        0.134706029736495    0.897692645604732    0.302663618200118  0.0000
  O1     O1        0.478899935718351    0.232942330978926    0.053359912359826  0.0000
  O1     O1        0.472786634185046    0.757900114006855    0.044883039680715  0.0000
  O1     O1        0.975177400114781    0.738571707071247    0.048060213951893  0.0000
  O1     O1        0.973792519553718    0.252388046489499    0.046566410820509  0.0000
  O1     O1        0.350177701513371    0.159258957361670    0.778339715245596  0.0000
  O3     O3        0.710913196181609    0.152642533827972    0.221247898500881  0.0000
  O1     O1        0.701861715970692    0.846812372328507    0.191745036532663  0.0000
  O1     O1        0.341055726278198    0.817914263632700    0.758363290445205  0.0000
  O1     O1        0.847613585790939    0.656839783330713    0.780476848029796  0.0000
  O1     O1        0.197986656224249    0.662858002495902    0.232219298632649  0.0000
  O1     O1        0.194867749523552    0.337943413081581    0.213153702602457  0.0000
  O1     O1        0.847992511854794    0.323654345392181    0.769560723906562  0.0000
  O1     O1        0.356869587374126    0.337302289478353    0.801313673609929  0.0000
  O1     O1        0.698527635053575    0.330548177611266    0.197686454022051  0.0000
  O1     O1        0.698223940565916    0.668240949625419    0.207388037584740  0.0000
  O3     O3        0.367632389364569    0.644122045882131    0.804662016363583  0.0000
  O1     O1        0.851462372694719    0.833924583154280    0.786380503414738  0.0000
  O3     O3        0.196499858336968    0.837516324635824    0.198246219934990  0.0000
  O1     O1        0.200121045534446    0.160293430636324    0.201081636193424  0.0000
  O1     O1        0.853522202707121    0.149035235641179    0.791792751898458  0.0000
  O1     O1        0.202356670451546    0.250671915313413    0.944297710335128  0.0000
  O1     O1        0.700268654676482    0.235223082197024    0.942851481812873  0.0000
  O1     O1        0.698122076845599    0.748523643204178    0.937549589026675  0.0000
  O1     O1        0.202858922768513    0.734614402001560    0.947631288195363  0.0000
  O1     O1        0.457574519603192    0.395296547612478    0.247754857801195  0.0000
  O1     O1        0.592742724644784    0.388289259189923    0.742049831573188  0.0000
  O3     O3        0.584631431656230    0.589268471045688    0.736283969940768  0.0000
  O1     O1        0.459119472372370    0.604588060315283    0.259882727613634  0.0000
  O3     O3        0.972561025617174    0.893759952662350    0.246588253273087  0.0000
  O1     O1        0.088164576338924    0.887334622826461    0.726075281795603  0.0000
  O1     O1        0.091032203637881    0.092097005775956    0.734155450027189  0.0000
  O3     O3        0.961103089130029    0.103321820248229    0.255045910174568  0.0000
  O1     O1        0.367508700261753    0.356808279323118    0.501251539423245  0.0000
  O1     O1        0.677442020188563    0.362508444828888    0.485577912950609  0.0000
  O1     O1        0.686475493786734    0.631071347676059    0.494437959068680  0.0000
  O3     O3        0.373660419719080    0.632659833480385    0.519828743328454  0.0000
  O1     O1        0.862832505733457    0.853484734364483    0.486161191683688  0.0000
  O3     O3        0.179678256855513    0.865958597672411    0.472875276582435  0.0000
  O1     O1        0.194212504414275    0.126446633343083    0.491656911558663  0.0000
  O3     O3        0.874244628923770    0.133808424445995    0.491103767625509  0.0000
  O1     O1        0.266784561684856    0.498697359142706    0.327304485248429  0.0000
  O1     O1        0.791259831455877    0.492429221763464    0.676956691971785  0.0000
  O3     O3        0.786820460425733    0.002407801502794    0.326955230746318  0.0000
  O1     O1        0.295674243949217    0.990016554811376    0.682329396565705  0.0000
  O3     O3        0.367379055022600    0.497859724339545    0.677366371737666  0.0000
  O1     O1        0.684257857164596    0.498420856723250    0.293400138133525  0.0000
  O1     O1        0.860058418407826    0.992508626900233    0.667815753670708  0.0000
  O3     O3        0.184370158299775    0.992429592609364    0.293631420003818  0.0000
