data_c00043.vasp
_audit_creation_method             Generated by GULP
_audit_author_name                 Salvador R. G. Balestra
_symmetry_space_group_name_H-M     'P 1             '
_symmetry_Int_Tables_number        1

loop_
_symmetry_equiv_pos_site_id
_symmetry_equiv_pos_as_xyz
_cell_length_a                       10.3023
_cell_length_b                       15.7657
_cell_length_c                        9.2524
_cell_angle_alpha                   90.4919
_cell_angle_beta                   105.5373
_cell_angle_gamma                   90.2661

loop_
_atom_site_label
_atom_site_type_symbol
_atom_site_fract_x
_atom_site_fract_y
_atom_site_fract_z
_atom_site_charge
  Ge     Ge        0.351599999999962    0.244500000000016    0.893900000000031  0.0000
  Ge     Ge        0.650085526668304    0.229368869826944    0.102352599862802  0.0000
  Ge     Ge        0.621253342550866    0.745093548107183    0.102140498409116  0.0000
  Ge     Ge        0.319388282414342    0.748937063192255    0.881963745322267  0.0000
  Ge     Ge        0.826864215229046    0.754078023887129    0.892044105099857  0.0000
  Ge     Ge        0.124278273935851    0.722506919787095    0.095134084081022  0.0000
  Ge     Ge        0.144102147786384    0.236013025336843    0.098369712710535  0.0000
  Ge     Ge        0.841220494215659    0.251820041372076    0.883346823539982  0.0000
  Ge     Ge        0.322920581629132    0.375510124909164    0.335645081247087  0.0000
  Ge     Ge        0.733290111750586    0.410424313282294    0.682474628320473  0.0000
  Ge     Ge        0.706837381813009    0.609321733519526    0.648977040637896  0.0000
  Ge     Ge        0.307748802962304    0.580000864335372    0.303113113112738  0.0000
  Ge     Ge        0.808222108911425    0.882933164385338    0.335223779465257  0.0000
  Ge     Ge        0.217089971774566    0.099830000186752    0.656502408261844  0.0000
  Ge     Ge        0.419787663989106    0.399338073370546    0.691905595851459  0.0000
  Ge     Ge        0.631693015404206    0.385572810937571    0.317689479686360  0.0000
  Ge     Ge        0.393856952273099    0.601520096695640    0.658991151482455  0.0000
  Ge     Ge        0.906255922327455    0.903247224141498    0.693155521460717  0.0000
  Ge     Ge        0.117574013474507    0.874785428736681    0.322369376991996  0.0000
  Ge     Ge        0.127325343005162    0.076323345656881    0.294754588497449  0.0000
  Ge     Ge        0.903737579942589    0.104980647810584    0.656046777136924  0.0000
  Si     Si        0.210601680766178    0.901941639460741    0.678127522161057  0.0000
  Si     Si        0.821947808590972    0.082638297112492    0.305264254939555  0.0000
  Si     Si        0.612963978083845    0.584348065719977    0.291341589934505  0.0000
  O1     O1        0.477222495348974    0.220955690869139    0.050795675004825  0.0000
  O1     O1        0.448681578663051    0.751097807784075    0.042365707137325  0.0000
  O1     O1        0.951338284944208    0.721400493175222    0.043731834624508  0.0000
  O1     O1        0.970687116533750    0.241314472013198    0.040630345930314  0.0000
  O1     O1        0.338775479217023    0.166817578623542    0.758679096143344  0.0000
  O3     O3        0.709174688069959    0.135902502354640    0.190692590744374  0.0000
  O1     O1        0.675730024693245    0.823866543033202    0.232900793263298  0.0000
  O3     O3        0.320679450428700    0.841629142329613    0.781823205646317  0.0000
  O1     O1        0.813362027861861    0.687233364602032    0.740286422544435  0.0000
  O1     O1        0.182560018693815    0.626493242015825    0.169204605801663  0.0000
  O1     O1        0.197297826711966    0.310189282732013    0.237837288705811  0.0000
  O1     O1        0.849849872303671    0.348368496753848    0.800098221052298  0.0000
  O1     O1        0.374525601851824    0.342743627013628    0.827113051732459  0.0000
  O1     O1        0.701987503808497    0.316531978061201    0.217740642906012  0.0000
  O3     O3        0.665734950412324    0.646043383207811    0.182436149703577  0.0000
  O1     O1        0.323987110520560    0.662928941666935    0.770167821705916  0.0000
  O1     O1        0.860488445240811    0.853159050050032    0.834894023512692  0.0000
  O1     O1        0.184035184377740    0.799540434656263    0.230978549051430  0.0000
  O1     O1        0.183917756224366    0.136242418058503    0.171578243411305  0.0000
  O1     O1        0.829783700207367    0.175103620084723    0.748222953947150  0.0000
  O1     O1        0.203409454146116    0.251203021036312    0.946114639265783  0.0000
  O1     O1        0.694968652719956    0.243474873469954    0.939211464876294  0.0000
  O1     O1        0.680517642822393    0.756305271725900    0.947413639011431  0.0000
  O1     O1        0.172217002345791    0.742965148915243    0.935321960625670  0.0000
  O1     O1        0.459769814755466    0.370719831415599    0.262378300149969  0.0000
  O1     O1        0.590599279809865    0.414478129635083    0.744551174706574  0.0000
  O1     O1        0.566629423125500    0.610535961592611    0.716152099151054  0.0000
  O3     O3        0.451105575629539    0.577839234239177    0.238708578908378  0.0000
  O1     O1        0.944026880794857    0.867353328266791    0.263741791855784  0.0000
  O3     O3        0.080440943394902    0.910950241957893    0.741684906733583  0.0000
  O1     O1        0.076539885117362    0.111747136541297    0.720953049512191  0.0000
  O3     O3        0.952159390567208    0.072977663466680    0.242784109331897  0.0000
  O1     O1        0.372256075158559    0.347391920236721    0.521324870730540  0.0000
  O1     O1        0.690831369453832    0.366234599735966    0.505056808671698  0.0000
  O3     O3        0.654586488981099    0.625034786898471    0.457899304729924  0.0000
  O1     O1        0.338290234697830    0.630878237302607    0.473615376840975  0.0000
  O1     O1        0.845268778615836    0.854867638682848    0.521094991175119  0.0000
  O3     O3        0.160426040620082    0.859323219356892    0.513641063192507  0.0000
  O1     O1        0.182864549236309    0.122198696942537    0.469498693088926  0.0000
  O3     O3        0.864662655988752    0.129057429604649    0.466714653197597  0.0000
  O1     O1        0.263562183388483    0.477371764213898    0.326320408426709  0.0000
  O1     O1        0.787440783871251    0.513107313359890    0.678946609494094  0.0000
  O3     O3        0.765936304144988    0.989479545491086    0.326378010757020  0.0000
  O3     O3        0.271660463357012    0.994954857021592    0.670829953222498  0.0000
  O1     O1        0.347202203991666    0.497904207034142    0.674165428469069  0.0000
  O3     O3        0.672924567161002    0.490635415332110    0.290110238959781  0.0000
  O1     O1        0.848324368471043    0.005412808222257    0.682626776938130  0.0000
  O1     O1        0.176133018742023    0.973083878055845    0.289611676114822  0.0000
