data_c00006.vasp
_audit_creation_method             Generated by GULP
_audit_author_name                 Salvador R. G. Balestra
_symmetry_space_group_name_H-M     'P 1             '
_symmetry_Int_Tables_number        1

loop_
_symmetry_equiv_pos_site_id
_symmetry_equiv_pos_as_xyz
_cell_length_a                       10.3417
_cell_length_b                       15.8368
_cell_length_c                        9.2395
_cell_angle_alpha                   90.1437
_cell_angle_beta                   104.7531
_cell_angle_gamma                   90.4955

loop_
_atom_site_label
_atom_site_type_symbol
_atom_site_fract_x
_atom_site_fract_y
_atom_site_fract_z
_atom_site_charge
  Ge     Ge        0.351599999999962    0.244500000000016    0.893900000000031  0.0000
  Ge     Ge        0.650651565110961    0.222239856266272    0.096839847594652  0.0000
  Ge     Ge        0.666368417801298    0.739089211550180    0.097235718232634  0.0000
  Ge     Ge        0.368357982916465    0.739198469245928    0.884554480482310  0.0000
  Ge     Ge        0.868963167702478    0.743164273918439    0.884501441294392  0.0000
  Ge     Ge        0.165517868997211    0.730030787213443    0.096628562566887  0.0000
  Ge     Ge        0.147706664012852    0.240937731507924    0.108165517068346  0.0000
  Ge     Ge        0.852278726760755    0.235347356250046    0.887688522519938  0.0000
  Ge     Ge        0.329185702211391    0.382462684808968    0.333265241502779  0.0000
  Ge     Ge        0.738743734554554    0.389892792246591    0.677680595639081  0.0000
  Ge     Ge        0.741436076884085    0.591987079209437    0.657464057009299  0.0000
  Ge     Ge        0.337932402565876    0.586182301239947    0.320799960619846  0.0000
  Ge     Ge        0.843752110001591    0.877382818633936    0.332575445275552  0.0000
  Ge     Ge        0.249167565586967    0.894053968497502    0.669725709548575  0.0000
  Ge     Ge        0.236404029497041    0.095440343751169    0.662016845420799  0.0000
  Ge     Ge        0.833153769622266    0.080849959370380    0.315572642300619  0.0000
  Ge     Ge        0.432482941059809    0.393714967166305    0.692572153610862  0.0000
  Ge     Ge        0.635771539385615    0.377555530116342    0.311923329091863  0.0000
  Ge     Ge        0.644875398731636    0.580295854356323    0.293921809223619  0.0000
  Ge     Ge        0.149936693250739    0.885519797510684    0.306734286547237  0.0000
  Ge     Ge        0.927348511556867    0.089309501052949    0.671807335481097  0.0000
  Si     Si        0.438446212150895    0.592878877313789    0.671468867220973  0.0000
  Si     Si        0.944435700356012    0.889896754747786    0.681127969656867  0.0000
  Si     Si        0.137973878706093    0.083901848772979    0.304097905465103  0.0000
  O1     O1        0.478702689525619    0.220809818321520    0.046834639762039  0.0000
  O1     O1        0.494701535856888    0.747420610815023    0.043118823043566  0.0000
  O1     O1        0.993755187126271    0.723774197203819    0.040683430381964  0.0000
  O1     O1        0.976325455014573    0.244328246992811    0.049539892333699  0.0000
  O1     O1        0.346474994017995    0.170089383476314    0.755446226145030  0.0000
  O1     O1        0.708300837664710    0.131706280054568    0.191527410234110  0.0000
  O1     O1        0.719936024611329    0.811918443263495    0.237604776150995  0.0000
  O1     O1        0.363458978879581    0.828951825056858    0.779397717498919  0.0000
  O1     O1        0.856163670723057    0.661478598228316    0.759258444001615  0.0000
  O1     O1        0.214563448485736    0.647680396870530    0.217534964936031  0.0000
  O1     O1        0.199801399350041    0.322149382473475    0.231434314968785  0.0000
  O1     O1        0.856165573620645    0.321649665035934    0.775723499115257  0.0000
  O1     O1        0.369301030638932    0.342734384597051    0.822191064593475  0.0000
  O1     O1        0.704172797493132    0.307638127753901    0.213197231719165  0.0000
  O1     O1        0.706185582175363    0.640416674347620    0.172850692402542  0.0000
  O3     O3        0.380805808447257    0.650515415620055    0.780964798151115  0.0000
  O3     O3        0.893673824144693    0.838089929141005    0.803924319411551  0.0000
  O1     O1        0.214904164436023    0.823611263923453    0.192185720783794  0.0000
  O3     O3        0.195863894285960    0.145881639374812    0.199461620262344  0.0000
  O1     O1        0.858439388490263    0.143001066879340    0.792372193533516  0.0000
  O1     O1        0.206188731374528    0.246229400745515    0.951301876607039  0.0000
  O1     O1        0.702462891723038    0.231989417299106    0.936334019599904  0.0000
  O1     O1        0.724183288301665    0.754047087568001    0.941911310879250  0.0000
  O1     O1        0.222051903027860    0.726423990019405    0.938526939109252  0.0000
  O1     O1        0.463362803874297    0.374956098617652    0.255419183877258  0.0000
  O1     O1        0.603211599487918    0.390762129183832    0.753699014449013  0.0000
  O3     O3        0.599411062761537    0.593062451074372    0.725251606385503  0.0000
  O1     O1        0.472551286734297    0.584535219971575    0.244284436827600  0.0000
  O1     O1        0.978995423271644    0.872741753948569    0.256622088458598  0.0000
  O3     O3        0.104823923852872    0.896260404583288    0.732598970827057  0.0000
  O1     O1        0.097557971991643    0.100176063511251    0.731838240576649  0.0000
  O3     O3        0.976882577755140    0.081128722139738    0.251229128998392  0.0000
  O1     O1        0.375665032608103    0.350246609260531    0.516858550233876  0.0000
  O1     O1        0.680313109237638    0.352936505477892    0.498042960266279  0.0000
  O1     O1        0.702597985572873    0.619267400548521    0.473131611940514  0.0000
  O3     O3        0.393551957215319    0.625968924459864    0.501852616068010  0.0000
  O3     O3        0.898729962439623    0.846182923909612    0.518456205227497  0.0000
  O1     O1        0.212638628084884    0.856875201821224    0.489881182700603  0.0000
  O3     O3        0.180789887296724    0.118097010620696    0.473682361741536  0.0000
  O1     O1        0.867326539194258    0.124924881008704    0.491369348915328  0.0000
  O1     O1        0.277917932145424    0.485507983569399    0.325890692018383  0.0000
  O1     O1        0.801846358507925    0.490409601810698    0.676471950203771  0.0000
  O1     O1        0.783456268831242    0.977863534529724    0.323031994351670  0.0000
  O1     O1        0.306251297802286    0.996827372652905    0.681301354382532  0.0000
  O3     O3        0.382568989718073    0.498279212859922    0.676461474387104  0.0000
  O1     O1        0.693237606643738    0.477582951601848    0.288840325123690  0.0000
  O3     O3        0.883575350647194    0.983272934296331    0.668184745757522  0.0000
  O3     O3        0.194397333659930    0.990623764353383    0.294838674564964  0.0000
