data_c00005.vasp
_audit_creation_method             Generated by GULP
_audit_author_name                 Salvador R. G. Balestra
_symmetry_space_group_name_H-M     'P 1             '
_symmetry_Int_Tables_number        1

loop_
_symmetry_equiv_pos_site_id
_symmetry_equiv_pos_as_xyz
_cell_length_a                       10.3557
_cell_length_b                       15.8497
_cell_length_c                        9.2548
_cell_angle_alpha                   90.1901
_cell_angle_beta                   104.8124
_cell_angle_gamma                   89.7314

loop_
_atom_site_label
_atom_site_type_symbol
_atom_site_fract_x
_atom_site_fract_y
_atom_site_fract_z
_atom_site_charge
  Ge     Ge        0.351599999999962    0.244500000000016    0.893900000000031  0.0000
  Ge     Ge        0.651295155459386    0.230899016204632    0.101932548216394  0.0000
  Ge     Ge        0.656421699756303    0.748535082489708    0.100447849014587  0.0000
  Ge     Ge        0.359761918634674    0.736804517246553    0.888735039593257  0.0000
  Ge     Ge        0.857387527180471    0.745639980037318    0.886410113669030  0.0000
  Ge     Ge        0.156237988969941    0.734744784115734    0.099520748940894  0.0000
  Ge     Ge        0.146274243891445    0.250289992883348    0.101472498541377  0.0000
  Ge     Ge        0.850632044766829    0.232315974267733    0.886384978316615  0.0000
  Ge     Ge        0.325615599521293    0.391340578895573    0.323474239385535  0.0000
  Ge     Ge        0.734276233881831    0.387303581373057    0.669568365384746  0.0000
  Ge     Ge        0.737867821409936    0.590413906734629    0.667779549566697  0.0000
  Ge     Ge        0.332431085479167    0.595350907018835    0.330519634435658  0.0000
  Ge     Ge        0.831079873296349    0.889203317038812    0.330233386475430  0.0000
  Ge     Ge        0.233395085062555    0.888058946650556    0.668476401803649  0.0000
  Ge     Ge        0.230691799542794    0.092841641733558    0.673699283363648  0.0000
  Ge     Ge        0.827332839867884    0.091307455203781    0.332906177167783  0.0000
  Ge     Ge        0.427248118176305    0.391557322530327    0.681506076232937  0.0000
  Ge     Ge        0.633550974472261    0.389051851910514    0.303417621455029  0.0000
  Ge     Ge        0.639876699137352    0.592143861167015    0.304844683184573  0.0000
  Ge     Ge        0.138819120262649    0.891306472563044    0.305402309252266  0.0000
  Ge     Ge        0.135522106884731    0.094381848417114    0.311093560483640  0.0000
  Si     Si        0.434156929014595    0.591214390925149    0.679742447242852  0.0000
  Si     Si        0.933215167195373    0.889613570695360    0.681087714079169  0.0000
  Si     Si        0.929891868266244    0.088033058037547    0.684143943539725  0.0000
  O1     O1        0.479228184615792    0.229869224908625    0.049726738876425  0.0000
  O1     O1        0.484650637924742    0.752700873622042    0.046327691385087  0.0000
  O1     O1        0.984240868381946    0.732264110160240    0.042990827012807  0.0000
  O1     O1        0.974455150472509    0.248266606148654    0.045585316388021  0.0000
  O1     O1        0.347718919912831    0.159145303685267    0.777159146928923  0.0000
  O1     O1        0.701100414161415    0.152078258989747    0.230541974281394  0.0000
  O1     O1        0.706533794730716    0.827398696002879    0.229135481347975  0.0000
  O1     O1        0.351127936916715    0.822024012627889    0.772782041547183  0.0000
  O1     O1        0.850767840910163    0.658812782586923    0.773269522732647  0.0000
  O1     O1        0.205969705586295    0.656613304390857    0.229919927886572  0.0000
  O1     O1        0.195040153140106    0.335774658901111    0.215618239826261  0.0000
  O1     O1        0.847778661836592    0.315774377946610    0.767853929206726  0.0000
  O1     O1        0.361801764543401    0.337925841872773    0.804341307295789  0.0000
  O1     O1        0.699934978323675    0.325231289074949    0.192120031826617  0.0000
  O1     O1        0.703755253139317    0.653879512879881    0.189560273915175  0.0000
  O3     O3        0.380155865482051    0.644279907983631    0.798454494364783  0.0000
  O3     O3        0.868942302847635    0.838844574063679    0.792939919763939  0.0000
  O1     O1        0.202165629992596    0.829804234793223    0.188212167637209  0.0000
  O1     O1        0.199708354944648    0.159703254327674    0.201747053861779  0.0000
  O3     O3        0.864795787277334    0.137103315992056    0.798261134004258  0.0000
  O1     O1        0.203804318787747    0.252425630491902    0.944877138352385  0.0000
  O1     O1        0.705447892335592    0.222289167726927    0.942943942848755  0.0000
  O1     O1        0.712454746935298    0.756745180216455    0.942903610004816  0.0000
  O1     O1        0.214657145738930    0.723950102839114    0.944153625757663  0.0000
  O1     O1        0.461312119493478    0.387063293836812    0.248313376736284  0.0000
  O1     O1        0.597742184153895    0.384626622842685    0.743237109271761  0.0000
  O3     O3        0.594785355755442    0.588751169520347    0.732582285432855  0.0000
  O1     O1        0.467735522294717    0.598358905149194    0.255258659602769  0.0000
  O1     O1        0.966589007274669    0.887189283063329    0.255476011480856  0.0000
  O3     O3        0.092707140642967    0.881511752940486    0.737958934668884  0.0000
  O3     O3        0.089132190436466    0.096431343306790    0.741958905346218  0.0000
  O1     O1        0.963222570738537    0.096328416018179    0.259116823209384  0.0000
  O1     O1        0.372405203276105    0.352634266432178    0.503065086928055  0.0000
  O1     O1        0.682158013086486    0.356723770977198    0.486304997542008  0.0000
  O1     O1        0.698599506230027    0.624585362359651    0.487069840486940  0.0000
  O3     O3        0.386516388179301    0.630634327030153    0.514501620098702  0.0000
  O3     O3        0.883272174196593    0.853830420214202    0.513762476911877  0.0000
  O1     O1        0.193957938174590    0.856103869924424    0.486298303618971  0.0000
  O1     O1        0.188161933629143    0.127352305736610    0.493244547797630  0.0000
  O3     O3        0.877561963779187    0.125124228817600    0.517931481761587  0.0000
  O1     O1        0.275159796095998    0.494295203202642    0.327760472216283  0.0000
  O1     O1        0.797268775819392    0.488200817107322    0.679512206075182  0.0000
  O1     O1        0.770490736809132    0.989950242960315    0.325391895181491  0.0000
  O1     O1        0.287984856385387    0.990646863703634    0.681536618483981  0.0000
  O3     O3        0.378385225240013    0.496560833176894    0.673516146992025  0.0000
  O1     O1        0.689174092427309    0.489768235230434    0.292280926932017  0.0000
  O2     O2        0.891466746191980    0.988626580431993    0.675509483965704  0.0000
  O1     O1        0.190423612017584    0.993221099053499    0.297485367473979  0.0000
