data_c00067.vasp
_audit_creation_method             Generated by GULP
_audit_author_name                 Salvador R. G. Balestra
_symmetry_space_group_name_H-M     'P 1             '
_symmetry_Int_Tables_number        1

loop_
_symmetry_equiv_pos_site_id
_symmetry_equiv_pos_as_xyz
_cell_length_a                       10.3444
_cell_length_b                       15.8393
_cell_length_c                        9.2067
_cell_angle_alpha                   90.7816
_cell_angle_beta                   105.8157
_cell_angle_gamma                   90.4244

loop_
_atom_site_label
_atom_site_type_symbol
_atom_site_fract_x
_atom_site_fract_y
_atom_site_fract_z
_atom_site_charge
  Ge     Ge        0.351599999999962    0.244500000000016    0.893900000000031  0.0000
  Ge     Ge        0.647272199479051    0.205376838204960    0.097588225797046  0.0000
  Ge     Ge        0.684783357157523    0.725063728217375    0.104831536265363  0.0000
  Ge     Ge        0.380738624682622    0.743109694493755    0.897177166499476  0.0000
  Ge     Ge        0.880646061032157    0.733924030631965    0.886718405036308  0.0000
  Ge     Ge        0.179017796593733    0.715634633434433    0.105288825280060  0.0000
  Ge     Ge        0.150076052650844    0.233818027095962    0.103842704788074  0.0000
  Ge     Ge        0.847002236517056    0.226811190011050    0.887515502323071  0.0000
  Ge     Ge        0.332906074590672    0.372040433289375    0.336174306117070  0.0000
  Ge     Ge        0.741945610067223    0.385587524304317    0.683647614461182  0.0000
  Ge     Ge        0.750837904213415    0.585174971656508    0.654359916224645  0.0000
  Ge     Ge        0.254469723156821    0.896239731412237    0.690722198733341  0.0000
  Ge     Ge        0.224829066982499    0.096761902854512    0.658328087235710  0.0000
  Ge     Ge        0.828101345976818    0.059194703730381    0.297510979834011  0.0000
  Ge     Ge        0.433167907730688    0.394613209139756    0.698470254839999  0.0000
  Ge     Ge        0.637724364027715    0.360959876737509    0.316016197910468  0.0000
  Ge     Ge        0.648457109981581    0.563917538216833    0.288555120356224  0.0000
  Ge     Ge        0.439967406184717    0.594478449147417    0.662578340748093  0.0000
  Ge     Ge        0.163347042258966    0.869856864305362    0.328465210631314  0.0000
  Ge     Ge        0.136312859731032    0.071150872175926    0.290537932879631  0.0000
  Ge     Ge        0.917082211625132    0.081756920434574    0.663501057397524  0.0000
  Si     Si        0.348168485747009    0.571732662744820    0.308664309646572  0.0000
  Si     Si        0.858447993830079    0.862837011503927    0.338043037198625  0.0000
  Si     Si        0.946514801324417    0.885920794349521    0.688567523565003  0.0000
  O1     O1        0.475060869447970    0.210461360628898    0.045725855169932  0.0000
  O1     O1        0.513296174391896    0.740071556603655    0.053991648376113  0.0000
  O1     O1        0.006395963196241    0.714061105409278    0.045610216151012  0.0000
  O1     O1        0.977039074883502    0.227494391874084    0.048001500203792  0.0000
  O1     O1        0.335764468866048    0.173542805966555    0.746896731501551  0.0000
  O1     O1        0.696269770835567    0.109890572135486    0.178789474352744  0.0000
  O3     O3        0.754403535863619    0.791058362717389    0.257380541079247  0.0000
  O1     O1        0.373043148215489    0.841480292804896    0.817816805557174  0.0000
  O1     O1        0.870041033519251    0.654505851685214    0.756180600902711  0.0000
  O3     O3        0.229197042650659    0.622844612874051    0.199146917882108  0.0000
  O1     O1        0.197656434855584    0.313823834693049    0.236202914163852  0.0000
  O1     O1        0.855391376170469    0.318624333018279    0.792108433147320  0.0000
  O1     O1        0.382054752963913    0.342813311294328    0.835267802406228  0.0000
  O1     O1        0.707080503814203    0.286919808667496    0.225344449312692  0.0000
  O1     O1        0.707961227549518    0.622408244037257    0.165395865448999  0.0000
  O1     O1        0.379442838237497    0.668997411381720    0.759515368048776  0.0000
  O3     O3        0.896439082266429    0.829017372019549    0.803840075520504  0.0000
  O1     O1        0.229565450230683    0.801336612244386    0.224813858699530  0.0000
  O1     O1        0.202326209211533    0.137649979458989    0.184023254723251  0.0000
  O1     O1        0.839467489734791    0.141675871494121    0.767998682061986  0.0000
  O1     O1        0.205365006690574    0.250141769135143    0.948208716547711  0.0000
  O1     O1        0.699248112997408    0.221327879676275    0.938703727789944  0.0000
  O1     O1        0.737492906401526    0.741750610801130    0.947997455744107  0.0000
  O1     O1        0.235038144329439    0.725064549976206    0.948897469065325  0.0000
  O1     O1        0.463951156132103    0.355075600957113    0.258330798353579  0.0000
  O1     O1        0.605517547970553    0.397730673888597    0.753852729709300  0.0000
  O1     O1        0.612399977935822    0.593349633206985    0.723052383909907  0.0000
  O3     O3        0.473531912445995    0.565794618609355    0.237144194536315  0.0000
  O3     O3        0.988658468236119    0.861655042272237    0.274649694430008  0.0000
  O3     O3        0.106509196806855    0.896522738355807    0.745687999641154  0.0000
  O1     O1        0.087297073713149    0.098512227358396    0.730277864081513  0.0000
  O1     O1        0.963576768899156    0.065543064065439    0.224761777952337  0.0000
  O1     O1        0.375296125378492    0.346130565362589    0.523795869871355  0.0000
  O1     O1        0.683255328139756    0.342466098903354    0.505474087383464  0.0000
  O1     O1        0.708709056473081    0.607219811946110    0.466055675413095  0.0000
  O3     O3        0.397038940213219    0.617482186057244    0.471742615663104  0.0000
  O2     O2        0.908889472011249    0.845999443785409    0.518286054522054  0.0000
  O1     O1        0.226932856482202    0.849206483357491    0.515657175823611  0.0000
  O1     O1        0.168567363100718    0.114372731034352    0.469475464762095  0.0000
  O1     O1        0.863347489236257    0.104480871980622    0.474853767909915  0.0000
  O3     O3        0.295341174645778    0.478569060419923    0.330697808114002  0.0000
  O1     O1        0.810715152296177    0.483562372894004    0.674994022320389  0.0000
  O3     O3        0.788132572697974    0.953293239984146    0.309221562609424  0.0000
  O1     O1        0.300902208021073    0.999590892954745    0.683899990716121  0.0000
  O1     O1        0.377986793193291    0.496960100236267    0.689631662608106  0.0000
  O1     O1        0.693000367599949    0.460331856750925    0.284464152666688  0.0000
  O3     O3        0.878395774209240    0.976463330977354    0.683350996996964  0.0000
  O1     O1        0.203281736485933    0.972437216476329    0.295763631090781  0.0000
