data_c00065.vasp
_audit_creation_method             Generated by GULP
_audit_author_name                 Salvador R. G. Balestra
_symmetry_space_group_name_H-M     'P 1             '
_symmetry_Int_Tables_number        1

loop_
_symmetry_equiv_pos_site_id
_symmetry_equiv_pos_as_xyz
_cell_length_a                       10.3081
_cell_length_b                       15.7871
_cell_length_c                        9.2674
_cell_angle_alpha                   90.5006
_cell_angle_beta                   105.3675
_cell_angle_gamma                   90.3580

loop_
_atom_site_label
_atom_site_type_symbol
_atom_site_fract_x
_atom_site_fract_y
_atom_site_fract_z
_atom_site_charge
  Ge     Ge        0.351599999999962    0.244500000000016    0.893900000000031  0.0000
  Ge     Ge        0.654613715593366    0.230587362099157    0.102010467077689  0.0000
  Ge     Ge        0.676100348932743    0.733863685986378    0.106841169839267  0.0000
  Ge     Ge        0.379026636046928    0.761464619916693    0.900071983543057  0.0000
  Ge     Ge        0.877774146793194    0.734590363059020    0.895167232811100  0.0000
  Ge     Ge        0.179712902917060    0.738512389199729    0.111201218462197  0.0000
  Ge     Ge        0.155040443484698    0.235411587276223    0.110501646940651  0.0000
  Ge     Ge        0.857588444967191    0.250462380784766    0.894626756685707  0.0000
  Ge     Ge        0.278423355756836    0.387932774139334    0.334975726443287  0.0000
  Ge     Ge        0.681261291384377    0.395615408977374    0.684089558353738  0.0000
  Ge     Ge        0.690776355626374    0.600285566886122    0.658779466193341  0.0000
  Ge     Ge        0.196499491095235    0.902237636954558    0.686642676409421  0.0000
  Ge     Ge        0.174980943861005    0.104415551510721    0.655228825020628  0.0000
  Ge     Ge        0.776164582999947    0.076156188788250    0.307226349250602  0.0000
  Ge     Ge        0.371466658682271    0.404790078408065    0.701666570671914  0.0000
  Ge     Ge        0.589545751967798    0.379991265412529    0.327547081182857  0.0000
  Ge     Ge        0.589649359961100    0.583879153461770    0.304390148923437  0.0000
  Ge     Ge        0.381807262016899    0.606369653743138    0.676889466712199  0.0000
  Ge     Ge        0.882821061035692    0.896087520452384    0.694998957163683  0.0000
  Ge     Ge        0.101721199633515    0.885767837534127    0.330145710484915  0.0000
  Ge     Ge        0.864099453935274    0.097437260441744    0.670143628367460  0.0000
  Si     Si        0.285756721270516    0.585332854535629    0.318861915824883  0.0000
  Si     Si        0.796984294400335    0.878100191507092    0.337479271320551  0.0000
  Si     Si        0.081393069433268    0.085744543850875    0.305601520535848  0.0000
  O1     O1        0.524497777550940    0.234437052484545    0.944858438326883  0.0000
  O1     O1        0.551613751827181    0.763041688872216    0.953389986632181  0.0000
  O1     O1        0.050757598462075    0.731870208988285    0.951691000445862  0.0000
  O1     O1        0.030485102590463    0.251000691936743    0.950182343082929  0.0000
  O1     O1        0.293936373081836    0.174262302045085    0.749009842285246  0.0000
  O1     O1        0.654831805668330    0.134689883246120    0.191183714235872  0.0000
  O3     O3        0.691462537706945    0.808623139326347    0.248921083802814  0.0000
  O1     O1        0.324895218065336    0.854886807961675    0.814342652708008  0.0000
  O1     O1        0.825370611419524    0.655295461865292    0.765695523582930  0.0000
  O3     O3        0.179266391156882    0.649397773116062    0.219967418480481  0.0000
  O1     O1        0.160266386572051    0.317921839426338    0.234237082309362  0.0000
  O1     O1        0.808777940208639    0.343968415188180    0.805059661130205  0.0000
  O1     O1        0.310966269691029    0.344120628471544    0.821665254673633  0.0000
  O1     O1        0.656890931376804    0.313739532456581    0.222077879138433  0.0000
  O1     O1        0.637938311559551    0.636972709896432    0.167558867935824  0.0000
  O1     O1        0.318234957994885    0.681204144787586    0.771263164917669  0.0000
  O1     O1        0.824954108079225    0.829230611658739    0.807535461094122  0.0000
  O1     O1        0.168189057962709    0.828797014235199    0.211740926518618  0.0000
  O3     O3        0.139205843313463    0.138762490820557    0.190225541602474  0.0000
  O1     O1        0.798260047465787    0.167758693196332    0.771428181978984  0.0000
  O1     O1        0.300049962105153    0.228040991811312    0.051643446590528  0.0000
  O1     O1        0.803265625588952    0.239400685007993    0.051753818475562  0.0000
  O1     O1        0.821557586780791    0.723661427126780    0.051859318082672  0.0000
  O1     O1        0.327088424342799    0.745927497622759    0.059251531204128  0.0000
  O1     O1        0.416497645424047    0.377161228677424    0.266359974904348  0.0000
  O1     O1        0.544652194015859    0.401747923563629    0.756281315102920  0.0000
  O1     O1        0.555124321733037    0.611404513957560    0.733036262630557  0.0000
  O3     O3        0.415256550319893    0.577185514881615    0.254169381570652  0.0000
  O3     O3        0.928022686922836    0.875352617797730    0.273435053291740  0.0000
  O1     O1        0.055454680574115    0.899782570300086    0.752092126952320  0.0000
  O1     O1        0.037239430650795    0.105045801847602    0.726111673251723  0.0000
  O3     O3        0.920406431964684    0.079425060569488    0.244825511175122  0.0000
  O1     O1        0.317847920633181    0.365278559497507    0.521621695223939  0.0000
  O1     O1        0.634407962430361    0.347805349250085    0.510554675797241  0.0000
  O1     O1        0.648600438356460    0.632861164079624    0.475349073728813  0.0000
  O3     O3        0.335857014336629    0.623126037085258    0.486260943581143  0.0000
  O3     O3        0.841872522459558    0.857535217621173    0.512295551240530  0.0000
  O1     O1        0.163062708039379    0.854847369020342    0.511987820736955  0.0000
  O3     O3        0.120260993698018    0.131270430077724    0.467626818096483  0.0000
  O1     O1        0.807941440932759    0.119248079029232    0.483428163940984  0.0000
  O3     O3        0.221492354438244    0.492199519899256    0.318541243689795  0.0000
  O1     O1        0.733883310658652    0.495940573103732    0.656980836740868  0.0000
  O3     O3        0.730426310852802    0.970839902524971    0.313953694643448  0.0000
  O1     O1        0.242793515055503    0.005334007776337    0.670666446176527  0.0000
  O1     O1        0.323967143940410    0.508100304973846    0.709725805136727  0.0000
  O1     O1        0.645781565985444    0.481507517153458    0.312847788552384  0.0000
  O1     O1        0.818456161113502    0.995124991137913    0.699938542503715  0.0000
  O3     O3        0.142862535412250    0.991990516386860    0.321435262827979  0.0000
