data_c00024.vasp
_audit_creation_method             Generated by GULP
_audit_author_name                 Salvador R. G. Balestra
_symmetry_space_group_name_H-M     'P 1             '
_symmetry_Int_Tables_number        1

loop_
_symmetry_equiv_pos_site_id
_symmetry_equiv_pos_as_xyz
_cell_length_a                       10.3183
_cell_length_b                       15.7825
_cell_length_c                        9.2287
_cell_angle_alpha                   90.3317
_cell_angle_beta                   105.1452
_cell_angle_gamma                   90.0674

loop_
_atom_site_label
_atom_site_type_symbol
_atom_site_fract_x
_atom_site_fract_y
_atom_site_fract_z
_atom_site_charge
  Ge     Ge        0.351599999999962    0.244500000000016    0.893900000000031  0.0000
  Ge     Ge        0.651542551998129    0.240508092905335    0.094852982453524  0.0000
  Ge     Ge        0.616257156590789    0.754652521700980    0.089251869081832  0.0000
  Ge     Ge        0.315689307075645    0.748271393657418    0.878119543772346  0.0000
  Ge     Ge        0.815881880326782    0.761638731688698    0.875438822082475  0.0000
  Ge     Ge        0.111822228476280    0.729035493626318    0.086433075217840  0.0000
  Ge     Ge        0.134664369733863    0.241357915184760    0.098920772525120  0.0000
  Ge     Ge        0.841439568698643    0.264225092224996    0.876654898806660  0.0000
  Ge     Ge        0.320649654133554    0.379194355952160    0.336451016928806  0.0000
  Ge     Ge        0.722494707377688    0.415098066558203    0.662711879679348  0.0000
  Ge     Ge        0.696728650605843    0.613863460432898    0.640251577192159  0.0000
  Ge     Ge        0.291124821666027    0.583432993185498    0.295305031036965  0.0000
  Ge     Ge        0.796818298106122    0.897578453045889    0.312672147206583  0.0000
  Ge     Ge        0.206184909798676    0.905191788983127    0.668306533000813  0.0000
  Ge     Ge        0.218971778065961    0.108100591055414    0.638336949343516  0.0000
  Ge     Ge        0.418766074662396    0.399799645896175    0.693921513768457  0.0000
  Ge     Ge        0.597339364505377    0.590484432459220    0.274216278016291  0.0000
  Ge     Ge        0.387944857197092    0.600920679443527    0.656459454884862  0.0000
  Ge     Ge        0.897601722339344    0.910675319306252    0.675930696452691  0.0000
  Ge     Ge        0.102528069893447    0.886873372976785    0.300180154506696  0.0000
  Ge     Ge        0.898500767752969    0.115167279009089    0.647522626801325  0.0000
  Si     Si        0.814227714066763    0.093815971876189    0.308116502647242  0.0000
  Si     Si        0.615881390039206    0.392166504762878    0.305426542119720  0.0000
  Si     Si        0.120736141971844    0.081248574361237    0.295795055661402  0.0000
  O1     O1        0.483570695127002    0.216791168946183    0.043138510367365  0.0000
  O1     O1        0.443187742194462    0.753392113932928    0.038523807856531  0.0000
  O1     O1        0.939295411330770    0.731617926306703    0.029370377020348  0.0000
  O1     O1        0.970890763508362    0.272647932407029    0.034511896093123  0.0000
  O1     O1        0.335838285381153    0.175152841099038    0.745762841764505  0.0000
  O3     O3        0.746271717339035    0.152647756711108    0.169836242730032  0.0000
  O1     O1        0.666609808555672    0.834938121097889    0.216953815967348  0.0000
  O1     O1        0.321394349505423    0.837082843177895    0.772216086829745  0.0000
  O1     O1        0.805500407144642    0.689937115743383    0.731199447859771  0.0000
  O1     O1        0.159392629859871    0.635130580688505    0.178052891905653  0.0000
  O1     O1        0.206876030833029    0.305362323337675    0.245822365200606  0.0000
  O1     O1        0.844124333754789    0.349299427013122    0.761201996695810  0.0000
  O1     O1        0.375679993130939    0.344405000105184    0.833242450871509  0.0000
  O3     O3        0.685268837864466    0.325703752567014    0.218152471422438  0.0000
  O1     O1        0.663742578792303    0.655840199445553    0.166128759402083  0.0000
  O1     O1        0.317821653777306    0.660247469888662    0.769563332474458  0.0000
  O1     O1        0.837595437784165    0.859648003838367    0.807609229628023  0.0000
  O1     O1        0.170350018991178    0.812782949839950    0.206921718409222  0.0000
  O3     O3        0.130582003590188    0.136576644719131    0.156199735687736  0.0000
  O1     O1        0.845233659337973    0.173839645291492    0.775432069491736  0.0000
  O1     O1        0.206926882846738    0.243654896093847    0.952806218866630  0.0000
  O1     O1        0.695084436114878    0.264379916772326    0.933423539803187  0.0000
  O1     O1        0.668974693045304    0.766173406441283    0.930082040975730  0.0000
  O1     O1        0.166900315474683    0.740904171009925    0.928309431631543  0.0000
  O3     O3        0.454703139478859    0.380651305052603    0.254279874675416  0.0000
  O1     O1        0.589031676517272    0.414968478382699    0.741375344439634  0.0000
  O1     O1        0.560126995636057    0.610652016460815    0.714161730994866  0.0000
  O1     O1        0.425045937012500    0.587774704242226    0.216927092199328  0.0000
  O1     O1        0.929878217215346    0.880829602154237    0.236189070518135  0.0000
  O1     O1        0.068981968149305    0.909220261706448    0.740463020150127  0.0000
  O1     O1        0.069257899587323    0.125771813424876    0.682270762341735  0.0000
  O2     O2        0.970000285448626    0.068834857595271    0.318651640022906  0.0000
  O1     O1        0.368043701341682    0.350384589217932    0.521015619154459  0.0000
  O3     O3        0.662269548059978    0.375481962210576    0.482225511959627  0.0000
  O1     O1        0.640295893753340    0.632680393080616    0.452425382274500  0.0000
  O1     O1        0.332990217036533    0.629491911981689    0.470824491562112  0.0000
  O1     O1        0.841829984938323    0.868375117037228    0.498050735516097  0.0000
  O1     O1        0.148657598441223    0.866893163434980    0.488292709745652  0.0000
  O3     O3        0.206040810982488    0.124797676656450    0.448909480498518  0.0000
  O3     O3        0.818189836380547    0.142608719025724    0.462317312725029  0.0000
  O1     O1        0.252177729774382    0.478754543410234    0.316206479372409  0.0000
  O1     O1        0.777304710234697    0.516841017098177    0.661007148606719  0.0000
  O3     O3        0.742513230312862    0.002789973771759    0.295328615437982  0.0000
  O1     O1        0.271310231493858    0.005177242872087    0.672543569581031  0.0000
  O1     O1        0.343414395186457    0.497265907789679    0.673707651826369  0.0000
  O3     O3        0.656370340074732    0.487541114994202    0.272869553940043  0.0000
  O1     O1        0.846988680502637    0.013982534751627    0.665019788772135  0.0000
  O3     O3        0.166263660367006    0.986317072309472    0.272924656222200  0.0000
