data_c00034.vasp
_audit_creation_method             Generated by GULP
_audit_author_name                 Salvador R. G. Balestra
_symmetry_space_group_name_H-M     'P 1             '
_symmetry_Int_Tables_number        1

loop_
_symmetry_equiv_pos_site_id
_symmetry_equiv_pos_as_xyz
_cell_length_a                       10.3089
_cell_length_b                       15.7799
_cell_length_c                        9.2310
_cell_angle_alpha                   90.3028
_cell_angle_beta                   105.1188
_cell_angle_gamma                   90.6495

loop_
_atom_site_label
_atom_site_type_symbol
_atom_site_fract_x
_atom_site_fract_y
_atom_site_fract_z
_atom_site_charge
  Ge     Ge        0.351599999999962    0.244500000000016    0.893900000000031  0.0000
  Ge     Ge        0.652294642461486    0.239781057283769    0.115433446063050  0.0000
  Ge     Ge        0.629295759959435    0.737633632565764    0.114597254876624  0.0000
  Ge     Ge        0.334126322501867    0.755376132132526    0.899230853684516  0.0000
  Ge     Ge        0.828215187380144    0.748667284512986    0.899261655387261  0.0000
  Ge     Ge        0.131053059331746    0.735685844900930    0.107751664380507  0.0000
  Ge     Ge        0.143044696406592    0.235446152041809    0.102006089377343  0.0000
  Ge     Ge        0.847069496029407    0.264485008090926    0.900381053169756  0.0000
  Ge     Ge        0.266291863885280    0.379025724751330    0.345349614920774  0.0000
  Ge     Ge        0.667630687317849    0.408326818154596    0.691360955770483  0.0000
  Ge     Ge        0.652271114704673    0.610121928667113    0.659168792852211  0.0000
  Ge     Ge        0.247404626609474    0.580087629459421    0.314991423107899  0.0000
  Ge     Ge        0.755038314022785    0.888710435174228    0.342274267277603  0.0000
  Ge     Ge        0.158961559482779    0.903508361368714    0.691499950805064  0.0000
  Ge     Ge        0.164459168339676    0.107950483530814    0.657372862807407  0.0000
  Ge     Ge        0.578156228753626    0.387405065356229    0.334886044525998  0.0000
  Ge     Ge        0.343279402719292    0.601938353778213    0.677189150556743  0.0000
  Ge     Ge        0.849111069133646    0.910201491206537    0.709389593929794  0.0000
  Ge     Ge        0.065198628092524    0.883640323664535    0.333615963008962  0.0000
  Ge     Ge        0.060622429149932    0.086731030081485    0.301318100963828  0.0000
  Ge     Ge        0.855447847858001    0.111243152267923    0.676342702119448  0.0000
  Si     Si        0.757783449829746    0.085811131345015    0.318613151841482  0.0000
  Si     Si        0.359410089599003    0.403942000339622    0.701032584115921  0.0000
  Si     Si        0.554723646248575    0.586731292509489    0.309234601232659  0.0000
  O1     O1        0.523465336940123    0.236460696977033    0.955585389825104  0.0000
  O1     O1        0.506748100298621    0.758139311572657    0.954953497899223  0.0000
  O1     O1        0.001100786776129    0.739935041013562    0.950664214914625  0.0000
  O1     O1        0.019520335956494    0.267149841503503    0.949674262341919  0.0000
  O1     O1        0.294907675644609    0.169354922704947    0.757901368109472  0.0000
  O3     O3        0.649341520923574    0.148698472603704    0.220189602306364  0.0000
  O1     O1        0.637772358178703    0.817398482680200    0.244368202154388  0.0000
  O1     O1        0.284605731763036    0.848721492887097    0.809141928374285  0.0000
  O1     O1        0.772237052637053    0.680152140803271    0.750958037453142  0.0000
  O1     O1        0.129857938128947    0.640282748767182    0.197789293367851  0.0000
  O1     O1        0.155943844302176    0.303577074941065    0.251673382616999  0.0000
  O1     O1        0.787517048586584    0.359813557385509    0.826454868763700  0.0000
  O3     O3        0.310775904182515    0.344397244663435    0.816763346217819  0.0000
  O1     O1        0.649476007284249    0.328820211031665    0.221777249166746  0.0000
  O3     O3        0.604863548052120    0.639820181917328    0.186981692305250  0.0000
  O1     O1        0.276401871934286    0.669913170849209    0.781216029144644  0.0000
  O1     O1        0.789164336900587    0.849309147045993    0.830828131443174  0.0000
  O1     O1        0.134926277730085    0.818221224417594    0.229499707341124  0.0000
  O1     O1        0.107044617637390    0.136447026877341    0.158624966413194  0.0000
  O1     O1        0.788583427231504    0.187023321586028    0.765696870189990  0.0000
  O1     O1        0.289807736550905    0.231868281215778    0.047276234476673  0.0000
  O1     O1        0.799386202856242    0.243715609299836    0.061245507358215  0.0000
  O1     O1        0.774497746307888    0.729300487812965    0.055762724011926  0.0000
  O1     O1        0.279973092256290    0.744096462519058    0.057572435244487  0.0000
  O1     O1        0.407375504199339    0.372944522551953    0.279148570070047  0.0000
  O3     O3        0.520634731384628    0.412328408902332    0.748544315625777  0.0000
  O1     O1        0.515061575163855    0.614940500527742    0.731607345531369  0.0000
  O3     O3        0.394289378386589    0.575636288428746    0.256668337556174  0.0000
  O1     O1        0.892514782241211    0.878261087024287    0.271787863162562  0.0000
  O1     O1        0.022210847779930    0.910103382578282    0.764011379241396  0.0000
  O1     O1        0.028486866581874    0.117666326556318    0.732158879344876  0.0000
  O3     O3        0.886715514646627    0.077959711805407    0.252169483464965  0.0000
  O3     O3        0.314545928010147    0.361219478678237    0.536161616708888  0.0000
  O1     O1        0.639087939763650    0.358911019569447    0.519783376385489  0.0000
  O3     O3        0.597977793582264    0.634318807037674    0.469709245494093  0.0000
  O1     O1        0.282882934390103    0.624583702120705    0.490998219345591  0.0000
  O1     O1        0.796643431887102    0.868452012410757    0.530300488934787  0.0000
  O1     O1        0.110434369531246    0.854649990626584    0.518709770691376  0.0000
  O1     O1        0.120658278955434    0.137112518407946    0.471471388225501  0.0000
  O3     O3        0.810291566435604    0.125474240543674    0.484763151137053  0.0000
  O1     O1        0.193699839104805    0.476985406190423    0.315732411237672  0.0000
  O1     O1        0.718960095831656    0.510784754806672    0.678144236291668  0.0000
  O3     O3        0.695476155580100    0.992328906470058    0.322475656958399  0.0000
  O1     O1        0.213838059727590    0.004274526400369    0.667478291973360  0.0000
  O3     O3        0.298116306168687    0.496976604074472    0.699299705405036  0.0000
  O3     O3        0.619278674501841    0.493899074621428    0.325281440762943  0.0000
  O1     O1        0.799010268613328    0.013040092327892    0.713926468356685  0.0000
  O1     O1        0.120172156719456    0.985379076264896    0.317400590458800  0.0000
