data_c00021.vasp
_audit_creation_method             Generated by GULP
_audit_author_name                 Salvador R. G. Balestra
_symmetry_space_group_name_H-M     'P 1             '
_symmetry_Int_Tables_number        1

loop_
_symmetry_equiv_pos_site_id
_symmetry_equiv_pos_as_xyz
_cell_length_a                       10.3108
_cell_length_b                       15.8238
_cell_length_c                        9.2488
_cell_angle_alpha                   90.0931
_cell_angle_beta                   105.2998
_cell_angle_gamma                   90.6820

loop_
_atom_site_label
_atom_site_type_symbol
_atom_site_fract_x
_atom_site_fract_y
_atom_site_fract_z
_atom_site_charge
  Ge     Ge        0.351599999999962    0.244500000000016    0.893900000000031  0.0000
  Ge     Ge        0.648795419901577    0.224367028389892    0.100371989561566  0.0000
  Ge     Ge        0.641212491824740    0.739222857004204    0.104065186188260  0.0000
  Ge     Ge        0.341514670465926    0.743697412899423    0.886280643411616  0.0000
  Ge     Ge        0.839868019957462    0.748651700604019    0.883642459816508  0.0000
  Ge     Ge        0.138312650358879    0.724341942908274    0.091679685642753  0.0000
  Ge     Ge        0.142859750388858    0.237657833684753    0.097585008021605  0.0000
  Ge     Ge        0.840817847084793    0.241677697415070    0.880751365448868  0.0000
  Ge     Ge        0.323805807761131    0.376206603621616    0.331845943068228  0.0000
  Ge     Ge        0.736249986243860    0.400399913129101    0.675632307335460  0.0000
  Ge     Ge        0.721538315297046    0.599369624132559    0.650162713296876  0.0000
  Ge     Ge        0.320332554643015    0.581071204618270    0.303614843203111  0.0000
  Ge     Ge        0.819235889237917    0.880689518849153    0.334485754564280  0.0000
  Ge     Ge        0.221871537135849    0.897468251533934    0.678206306000415  0.0000
  Ge     Ge        0.218566516575344    0.100372302951980    0.656430345636114  0.0000
  Ge     Ge        0.424068292408254    0.395819973273126    0.688462625236366  0.0000
  Ge     Ge        0.631499750444718    0.381082620632798    0.310620004844000  0.0000
  Ge     Ge        0.409357416406721    0.597739998677840    0.659380597696994  0.0000
  Ge     Ge        0.128111741121367    0.875314518674922    0.318025239918141  0.0000
  Ge     Ge        0.126070935344435    0.078564634689172    0.295741008151003  0.0000
  Ge     Ge        0.906871476985058    0.094976841854490    0.659230110707621  0.0000
  Si     Si        0.820841724646340    0.079063257273236    0.306298320055993  0.0000
  Si     Si        0.624930869717760    0.579739292996428    0.291222153598359  0.0000
  Si     Si        0.915128465933051    0.897372906548485    0.687113314016488  0.0000
  O1     O1        0.475984675284600    0.218106263526138    0.049604948472348  0.0000
  O1     O1        0.468629773998127    0.743703118836028    0.047087102424413  0.0000
  O1     O1        0.965473709945952    0.723655768340682    0.038614218266036  0.0000
  O1     O1        0.969732923040810    0.239266890729614    0.039528845451656  0.0000
  O1     O1        0.337516045207468    0.169414922718324    0.756005852044646  0.0000
  O3     O3        0.706769647967366    0.133076772269198    0.195993222658242  0.0000
  O1     O1        0.692507716100460    0.816238514387147    0.237961626363506  0.0000
  O1     O1        0.342128871549313    0.837578891502766    0.792708909375524  0.0000
  O1     O1        0.830396165883306    0.675368309862859    0.743833287603003  0.0000
  O1     O1        0.194528714375582    0.630481363919036    0.176513433815594  0.0000
  O1     O1        0.194611001000209    0.313819277410720    0.232717287828507  0.0000
  O1     O1        0.850087841614170    0.334265897371947    0.785950460275010  0.0000
  O1     O1        0.377830671763987    0.342198267158832    0.826957778829140  0.0000
  O1     O1        0.701073585459197    0.312812035528083    0.210461276584489  0.0000
  O3     O3        0.684076714710413    0.640444294670368    0.184835850134010  0.0000
  O1     O1        0.342735141139379    0.659237123405094    0.771633980486718  0.0000
  O3     O3        0.863480177248375    0.846540896701915    0.810885521910881  0.0000
  O1     O1        0.194496680422348    0.806477342691004    0.215999160252256  0.0000
  O1     O1        0.184659932279701    0.139100887842277    0.174085950252345  0.0000
  O1     O1        0.831111296163082    0.158105431399411    0.759450960736145  0.0000
  O1     O1        0.203217223890692    0.251712265718987    0.945099758772532  0.0000
  O1     O1        0.694383348340955    0.235387898288910    0.936581794337095  0.0000
  O1     O1        0.696988800173670    0.752336146212450    0.946797896668760  0.0000
  O1     O1        0.190871568220301    0.737888840085317    0.933268218209772  0.0000
  O1     O1        0.459390424377810    0.368715622560870    0.256388665077614  0.0000
  O1     O1        0.595659122855835    0.406539613703977    0.740946516405002  0.0000
  O1     O1        0.582107794561063    0.603101509227092    0.718456341668423  0.0000
  O3     O3        0.462906602571416    0.577718097543491    0.237422017114567  0.0000
  O1     O1        0.954691594601947    0.868442075658097    0.262190094860043  0.0000
  O3     O3        0.076480051494246    0.903589326546739    0.738734201261421  0.0000
  O1     O1        0.077931301846979    0.106911532235618    0.723602029227613  0.0000
  O3     O3        0.951159750142270    0.074039101992798    0.242632373847319  0.0000
  O1     O1        0.372209352823999    0.346024087830518    0.516836336502847  0.0000
  O1     O1        0.688679209810202    0.359213316596056    0.497265305059843  0.0000
  O3     O3        0.668593011166298    0.616987045863754    0.459536556794123  0.0000
  O1     O1        0.356382617559720    0.629849597227113    0.475550677253048  0.0000
  O3     O3        0.866021687690765    0.854268643369383    0.523205923658000  0.0000
  O1     O1        0.180750684884136    0.851036655679405    0.504296962747199  0.0000
  O1     O1        0.177068150151050    0.124717728640413    0.469814933894115  0.0000
  O3     O3        0.862008357991941    0.121340361823659    0.470828263317179  0.0000
  O1     O1        0.271636264336911    0.478920295989272    0.324325521033219  0.0000
  O1     O1        0.796626673947891    0.502080954030767    0.676414788810854  0.0000
  O3     O3        0.766052459302607    0.984407360380537    0.318227634407155  0.0000
  O1     O1        0.279052160926643    0.998915517635689    0.672640235110049  0.0000
  O1     O1        0.356946243816868    0.495191230314592    0.670654926819286  0.0000
  O3     O3        0.678003299590321    0.485200619530947    0.285992522854791  0.0000
  O3     O3        0.857386392978182    0.991598268910288    0.677096082365025  0.0000
  O1     O1        0.181064248407041    0.977163084543694    0.296668793405071  0.0000
