data_c00052.vasp
_audit_creation_method             Generated by GULP
_audit_author_name                 Salvador R. G. Balestra
_symmetry_space_group_name_H-M     'P 1             '
_symmetry_Int_Tables_number        1

loop_
_symmetry_equiv_pos_site_id
_symmetry_equiv_pos_as_xyz
_cell_length_a                       10.3082
_cell_length_b                       15.8235
_cell_length_c                        9.2322
_cell_angle_alpha                   90.4350
_cell_angle_beta                   105.6774
_cell_angle_gamma                   90.2218

loop_
_atom_site_label
_atom_site_type_symbol
_atom_site_fract_x
_atom_site_fract_y
_atom_site_fract_z
_atom_site_charge
  Ge     Ge        0.351599999999962    0.244500000000016    0.893900000000031  0.0000
  Ge     Ge        0.649346681856182    0.214265729561766    0.099341104957510  0.0000
  Ge     Ge        0.656896698392565    0.733188893720643    0.095322986038928  0.0000
  Ge     Ge        0.350915421498877    0.741667190339895    0.883701840811857  0.0000
  Ge     Ge        0.859996589819177    0.743480734053315    0.884838907099073  0.0000
  Ge     Ge        0.155863123840050    0.717402507891880    0.098745714691210  0.0000
  Ge     Ge        0.144566434803217    0.235276889646557    0.098891246379725  0.0000
  Ge     Ge        0.841367499840468    0.235632559617911    0.881069612047241  0.0000
  Ge     Ge        0.325521082446374    0.373810187009830    0.331975999874654  0.0000
  Ge     Ge        0.735123279324753    0.395577067743569    0.679516820458976  0.0000
  Ge     Ge        0.729295043212169    0.596017146121076    0.649919506196183  0.0000
  Ge     Ge        0.831662745303558    0.871745427357907    0.335281621443930  0.0000
  Ge     Ge        0.237269333943324    0.899066682510790    0.680691477506030  0.0000
  Ge     Ge        0.221243589155891    0.099913964745687    0.654567549992068  0.0000
  Ge     Ge        0.423253645641075    0.396523938980046    0.692530695173590  0.0000
  Ge     Ge        0.633748398501972    0.369611787785048    0.314608805681614  0.0000
  Ge     Ge        0.633406772523096    0.572838330155037    0.285764127864931  0.0000
  Ge     Ge        0.416295746457610    0.596574489407394    0.652917616131668  0.0000
  Ge     Ge        0.143542032452006    0.870994407224302    0.320688565626189  0.0000
  Ge     Ge        0.129252181282655    0.074524996154651    0.292157207333618  0.0000
  Ge     Ge        0.909906059878533    0.089885314666282    0.656638179897040  0.0000
  Si     Si        0.330507852562961    0.573669199108873    0.300181289142604  0.0000
  Si     Si        0.824637815400779    0.070236525297669    0.301854194981409  0.0000
  Si     Si        0.926953918550101    0.894089841321403    0.686858471775866  0.0000
  O1     O1        0.476046778921690    0.213442957024492    0.047714055047787  0.0000
  O1     O1        0.483100196063317    0.734255147825646    0.039163108165169  0.0000
  O1     O1        0.982559847584102    0.716659202199232    0.043107183083186  0.0000
  O1     O1        0.971082702783509    0.232426620860058    0.040707418575709  0.0000
  O1     O1        0.336315369211512    0.172292269483564    0.750474414957351  0.0000
  O3     O3        0.705968345849477    0.120784902691114    0.188846320536688  0.0000
  O1     O1        0.706672911287647    0.806361347848870    0.238055307252690  0.0000
  O1     O1        0.350734911423384    0.841023091692293    0.808323868662919  0.0000
  O1     O1        0.845243054350570    0.667640825414324    0.748407042230481  0.0000
  O3     O3        0.209871075951577    0.623701604634748    0.189356973200103  0.0000
  O1     O1        0.193460238756319    0.313394750260680    0.232970333145963  0.0000
  O1     O1        0.849534043533948    0.330204626218069    0.792584241281199  0.0000
  O1     O1        0.378122783185488    0.342954937782217    0.831278895854828  0.0000
  O1     O1        0.704458983754522    0.298634536261717    0.219222105398007  0.0000
  O1     O1        0.695223247660882    0.632969871241807    0.166358193309333  0.0000
  O1     O1        0.345092676176962    0.668534779890110    0.744393654699006  0.0000
  O3     O3        0.889179608622153    0.841001699200628    0.816363573922411  0.0000
  O1     O1        0.210624961175557    0.802187758611127    0.217654600333771  0.0000
  O1     O1        0.189760219877876    0.136964846106522    0.175328531664972  0.0000
  O1     O1        0.832456298593562    0.154262129445708    0.754487606627222  0.0000
  O1     O1        0.203831341916742    0.251008225922556    0.946364835174858  0.0000
  O1     O1        0.694923190254681    0.227844851766805    0.936131068949187  0.0000
  O1     O1        0.714614848179976    0.752627739372698    0.942506787711593  0.0000
  O1     O1        0.204919745307228    0.727792792037699    0.937466466143557  0.0000
  O1     O1        0.460059533511238    0.360060849532532    0.257914132727119  0.0000
  O1     O1        0.595338611979324    0.405352844032079    0.745287255788303  0.0000
  O1     O1        0.589303468293430    0.601470269890533    0.717583548955688  0.0000
  O3     O3        0.457875466026681    0.569720420194425    0.231041748105428  0.0000
  O1     O1        0.970285016903830    0.859726151287987    0.268566071211981  0.0000
  O3     O3        0.086886318327144    0.908066905185284    0.729418980332968  0.0000
  O1     O1        0.080911735781740    0.104112685552383    0.722478445408615  0.0000
  O3     O3        0.954184204409893    0.067867939933826    0.236534345627147  0.0000
  O1     O1        0.367971795300372    0.347678968576279    0.519245140652936  0.0000
  O1     O1        0.683667729387505    0.350347742555153    0.503364237481871  0.0000
  O1     O1        0.686653467595618    0.617666671444561    0.461817462609621  0.0000
  O3     O3        0.376058200260391    0.619276304828484    0.462472139712519  0.0000
  O3     O3        0.875338070630331    0.847430927532761    0.525518766560492  0.0000
  O1     O1        0.204581013340090    0.849933510774098    0.508238027143112  0.0000
  O1     O1        0.175782771400031    0.121496360848830    0.466643184090784  0.0000
  O3     O3        0.864499024278393    0.113668220042588    0.466431958563271  0.0000
  O3     O3        0.281066012179108    0.479565329922526    0.322614205466454  0.0000
  O1     O1        0.796576161954705    0.495657735921917    0.671405506961861  0.0000
  O3     O3        0.775622492410963    0.974945834292415    0.316090697815908  0.0000
  O1     O1        0.291919312772665    0.000623805200928    0.674492505088023  0.0000
  O1     O1        0.360510151862489    0.497544720782282    0.681087402002557  0.0000
  O1     O1        0.684977035559391    0.470348289809024    0.285035637169701  0.0000
  O3     O3        0.861595693088168    0.986647830301659    0.677804685748552  0.0000
  O1     O1        0.188075162893993    0.973649393398023    0.293619370104749  0.0000
