data_c00004.vasp
_audit_creation_method             Generated by GULP
_audit_author_name                 Salvador R. G. Balestra
_symmetry_space_group_name_H-M     'P 1             '
_symmetry_Int_Tables_number        1

loop_
_symmetry_equiv_pos_site_id
_symmetry_equiv_pos_as_xyz
_cell_length_a                       10.3704
_cell_length_b                       15.8223
_cell_length_c                        9.2614
_cell_angle_alpha                   90.0483
_cell_angle_beta                   104.7811
_cell_angle_gamma                   89.5795

loop_
_atom_site_label
_atom_site_type_symbol
_atom_site_fract_x
_atom_site_fract_y
_atom_site_fract_z
_atom_site_charge
  Ge     Ge        0.351599999999962    0.244500000000016    0.893900000000031  0.0000
  Ge     Ge        0.649507316850808    0.257495526319260    0.099109878115500  0.0000
  Ge     Ge        0.648526925567271    0.755853877570024    0.101309039400168  0.0000
  Ge     Ge        0.352518849275772    0.757710969101784    0.886616423934991  0.0000
  Ge     Ge        0.854822570170061    0.745019059206167    0.897275318968164  0.0000
  Ge     Ge        0.153198014822550    0.759812592496247    0.106920439102275  0.0000
  Ge     Ge        0.153336084955786    0.249390617691331    0.110487842143100  0.0000
  Ge     Ge        0.856946420849750    0.259980204558904    0.894072251075542  0.0000
  Ge     Ge        0.265027190802162    0.405799434387420    0.326694590612795  0.0000
  Ge     Ge        0.674808093005268    0.398691578709582    0.667780763317095  0.0000
  Ge     Ge        0.671719290637433    0.604862013824327    0.674220503406740  0.0000
  Ge     Ge        0.267634409999012    0.607315249644449    0.334022333807324  0.0000
  Ge     Ge        0.775524874955823    0.904962735345517    0.318632920251863  0.0000
  Ge     Ge        0.176809422339862    0.899653750860866    0.656658420446693  0.0000
  Ge     Ge        0.178205750092946    0.101897430697142    0.665583535997456  0.0000
  Ge     Ge        0.778251581515210    0.109837902485737    0.326479998060799  0.0000
  Ge     Ge        0.369794105890619    0.402079552606192    0.691906244163240  0.0000
  Ge     Ge        0.574223484392926    0.405326863226755    0.312731663410664  0.0000
  Ge     Ge        0.577536935130122    0.608886794395189    0.320930812250103  0.0000
  Ge     Ge        0.869784698536719    0.899053312078201    0.679887955739221  0.0000
  Ge     Ge        0.870661752051054    0.102464079777186    0.687802767979773  0.0000
  Si     Si        0.369140719084001    0.601335995194177    0.691630277978628  0.0000
  Si     Si        0.075465121030716    0.906244038342952    0.305299918156525  0.0000
  Si     Si        0.077929850666853    0.104616302940104    0.314003297622622  0.0000
  O1     O1        0.522996969624287    0.238008381848454    0.944799385921813  0.0000
  O1     O1        0.522980114851625    0.767092489891657    0.942733586741654  0.0000
  O1     O1        0.026399834105308    0.741747371714693    0.951727056981391  0.0000
  O1     O1        0.028535891368396    0.261248155755126    0.951190896881951  0.0000
  O1     O1        0.300429569619097    0.164206289132434    0.768889073510967  0.0000
  O1     O1        0.659434926097732    0.175901794392289    0.224361523990852  0.0000
  O1     O1        0.653251845582772    0.842856981231253    0.214054741106100  0.0000
  O1     O1        0.298998225244614    0.834805068135914    0.755902302769651  0.0000
  O1     O1        0.798340483057005    0.656650942335365    0.793593598174924  0.0000
  O1     O1        0.158068091337350    0.681060688541299    0.236322741929559  0.0000
  O1     O1        0.153777927919788    0.334764230469796    0.225183675244479  0.0000
  O1     O1        0.806730440517845    0.342416903911139    0.772337247595662  0.0000
  O1     O1        0.303337357845924    0.339515788499819    0.803549570003214  0.0000
  O1     O1        0.629041341288526    0.352023663727374    0.180276046295295  0.0000
  O1     O1        0.635910255432257    0.664475159475096    0.194509264817324  0.0000
  O3     O3        0.310062640974154    0.660644441564312    0.799415402414285  0.0000
  O1     O1        0.805168966745993    0.833606995834457    0.788972294450746  0.0000
  O3     O3        0.138724987587688    0.857064056167872    0.189315825343011  0.0000
  O3     O3        0.144118546436415    0.155556107561028    0.204011521090337  0.0000
  O1     O1        0.808302762234796    0.166148721847964    0.802526611638688  0.0000
  O1     O1        0.298660196212974    0.240087458971812    0.054124212258737  0.0000
  O1     O1        0.797044472980732    0.266528802561637    0.048519630119940  0.0000
  O1     O1        0.798131336987445    0.749157265165722    0.054011924417672  0.0000
  O1     O1        0.295743363073814    0.764702816418993    0.044482499434383  0.0000
  O1     O1        0.402986813392494    0.407924440518796    0.256829930449062  0.0000
  O1     O1        0.540738621311168    0.392198085957027    0.745236631894062  0.0000
  O3     O3        0.529970439537602    0.604701693259840    0.741529437488528  0.0000
  O1     O1        0.406220512914131    0.609777057228676    0.265397082730762  0.0000
  O3     O3        0.916148954483185    0.900419493505662    0.248911410017850  0.0000
  O1     O1        0.041681057402890    0.895845657259541    0.731671309610431  0.0000
  O1     O1        0.042637476472853    0.103318854606524    0.739623703315283  0.0000
  O3     O3        0.918834169853417    0.114671969539162    0.256864149222409  0.0000
  O1     O1        0.313421907099144    0.372449565082883    0.508719179382108  0.0000
  O1     O1        0.626562220130370    0.360966909579144    0.487561639130582  0.0000
  O1     O1        0.632893110039892    0.648888007882212    0.498849729282221  0.0000
  O3     O3        0.318952315176538    0.633142253736737    0.521455914865957  0.0000
  O1     O1        0.817875529733978    0.867259187676527    0.497501325322570  0.0000
  O3     O3        0.126629132555823    0.868008049840124    0.470972542053368  0.0000
  O3     O3        0.128136435095860    0.138350434215128    0.482448632704405  0.0000
  O1     O1        0.819502580669611    0.140947983845692    0.508749858862015  0.0000
  O1     O1        0.201216312640001    0.507344281709937    0.316370971980568  0.0000
  O1     O1        0.720749054786069    0.502136225150870    0.661841489695966  0.0000
  O1     O1        0.721817343912634    0.007707773053292    0.315459253480002  0.0000
  O1     O1        0.237388039078238    0.000452782546725    0.668776685470892  0.0000
  O3     O3        0.320974684615305    0.506227816235321    0.703901112450365  0.0000
  O1     O1        0.633428697642220    0.506579175165287    0.324054225336317  0.0000
  O1     O1        0.816144368584101    0.000982772114826    0.693991487653949  0.0000
  O2     O2        0.117461428339731    0.005112708816152    0.315891729378416  0.0000
