data_c00057.vasp
_audit_creation_method             Generated by GULP
_audit_author_name                 Salvador R. G. Balestra
_symmetry_space_group_name_H-M     'P 1             '
_symmetry_Int_Tables_number        1

loop_
_symmetry_equiv_pos_site_id
_symmetry_equiv_pos_as_xyz
_cell_length_a                       10.2804
_cell_length_b                       15.8294
_cell_length_c                        9.3148
_cell_angle_alpha                   89.2910
_cell_angle_beta                   105.9480
_cell_angle_gamma                   89.7337

loop_
_atom_site_label
_atom_site_type_symbol
_atom_site_fract_x
_atom_site_fract_y
_atom_site_fract_z
_atom_site_charge
  Ge     Ge        0.351599999999962    0.244500000000016    0.893900000000031  0.0000
  Ge     Ge        0.658409562992715    0.244714305392045    0.103888666466657  0.0000
  Ge     Ge        0.659814511525550    0.763986098487987    0.104540780118619  0.0000
  Ge     Ge        0.358899069617657    0.745835143061974    0.890559635858856  0.0000
  Ge     Ge        0.863798834616557    0.745308479384006    0.899046407103416  0.0000
  Ge     Ge        0.168145842733672    0.749947885570341    0.109711360822136  0.0000
  Ge     Ge        0.151950842519813    0.266938079314919    0.105245806334249  0.0000
  Ge     Ge        0.854899742886166    0.240703503864369    0.891165283713834  0.0000
  Ge     Ge        0.331480164095410    0.410023225230902    0.310968249425770  0.0000
  Ge     Ge        0.733459033530899    0.390921993846793    0.662123764436148  0.0000
  Ge     Ge        0.746704697187387    0.591840804518631    0.687735889888049  0.0000
  Ge     Ge        0.837760030680192    0.908654854725421    0.312185273939225  0.0000
  Ge     Ge        0.238854217551757    0.897742673327386    0.667888439894110  0.0000
  Ge     Ge        0.420222616996581    0.392509456640513    0.668792082279535  0.0000
  Ge     Ge        0.640047094155095    0.406134678174207    0.296460649465104  0.0000
  Ge     Ge        0.651726725028625    0.609149506693534    0.324955966979560  0.0000
  Ge     Ge        0.429455953478355    0.594785089268971    0.683748530684083  0.0000
  Ge     Ge        0.926206645935248    0.891589164466637    0.669518730734207  0.0000
  Ge     Ge        0.147399420307766    0.910197352895259    0.301655338620990  0.0000
  Ge     Ge        0.148650740698352    0.112463456016651    0.328052333007275  0.0000
  Ge     Ge        0.929695464967506    0.093609131059914    0.682361557055049  0.0000
  Si     Si        0.345675202443303    0.610160313431350    0.334859307480375  0.0000
  Si     Si        0.240674889649465    0.094266665801978    0.682082903491051  0.0000
  Si     Si        0.840867878739434    0.109740398203762    0.335969694762484  0.0000
  O1     O1        0.484370331754576    0.238402716141052    0.051243696497775  0.0000
  O1     O1        0.486349885309983    0.760052590402424    0.050089866283761  0.0000
  O1     O1        0.993733673204204    0.745577247498440    0.058932538313628  0.0000
  O1     O1        0.978744144964103    0.262582844791620    0.050729990856760  0.0000
  O3     O3        0.348283423457016    0.153222667890944    0.791106600399357  0.0000
  O3     O3        0.720125784597077    0.164871673838507    0.232939313829924  0.0000
  O1     O1        0.706189162808275    0.857828012699180    0.193535825654310  0.0000
  O1     O1        0.358104388676586    0.828508854373760    0.768371205888145  0.0000
  O1     O1        0.865649382728832    0.652910016989807    0.803783844880698  0.0000
  O3     O3        0.227225797115344    0.668383555642833    0.235602937849714  0.0000
  O1     O1        0.197963273749616    0.361590150613695    0.190647950196405  0.0000
  O1     O1        0.848437410745649    0.317986354077015    0.758596493884790  0.0000
  O1     O1        0.354961138266018    0.330491008679002    0.782119867446460  0.0000
  O1     O1        0.703311754613113    0.341210970462785    0.185829438242774  0.0000
  O1     O1        0.717319276802971    0.679650639129097    0.225132765214164  0.0000
  O1     O1        0.366982506271976    0.652393102141673    0.803334239174702  0.0000
  O1     O1        0.858996151718253    0.829175768704460    0.779859075680887  0.0000
  O1     O1        0.215169010637462    0.845285597341172    0.194917039316614  0.0000
  O1     O1        0.212616231273934    0.185460203358011    0.231717265670470  0.0000
  O1     O1        0.879137306378070    0.145703668579083    0.816360863151866  0.0000
  O1     O1        0.205639830534768    0.253984096451429    0.948650837137031  0.0000
  O1     O1        0.707206552499695    0.235575560032259    0.943841737933526  0.0000
  O1     O1        0.714608290521605    0.753060987894781    0.948878344548338  0.0000
  O1     O1        0.213040600740859    0.742203802252698    0.947560230060643  0.0000
  O1     O1        0.465872480223418    0.404648166304156    0.235813924700142  0.0000
  O1     O1        0.593909297732689    0.389035398284330    0.730279109138640  0.0000
  O1     O1        0.602548992815479    0.590153472862642    0.747386575221373  0.0000
  O3     O3        0.475380692296641    0.612916897149774    0.269885383684636  0.0000
  O1     O1        0.973444998541168    0.906397098803310    0.239021535161914  0.0000
  O1     O1        0.099743814310386    0.888477537383473    0.734886342194031  0.0000
  O3     O3        0.104621892140431    0.088071333976531    0.735050575227315  0.0000
  O3     O3        0.972693437225845    0.116688297898390    0.274805480626881  0.0000
  O1     O1        0.369449528666708    0.362755081106580    0.484818949832155  0.0000
  O1     O1        0.683364106728223    0.367468943216984    0.476601246134674  0.0000
  O1     O1        0.708386508892882    0.633291823252353    0.509439071378922  0.0000
  O3     O3        0.388139288628933    0.640287433683307    0.505792124015103  0.0000
  O1     O1        0.878584172589050    0.861193779971079    0.485857036891018  0.0000
  O1     O1        0.192878768271071    0.873241210151567    0.482781609184047  0.0000
  O3     O3        0.204125583511458    0.133752726770294    0.515851131545915  0.0000
  O3     O3        0.876067945512996    0.141028717514187    0.506591158528904  0.0000
  O3     O3        0.293228776145162    0.514572094281243    0.333959592770485  0.0000
  O1     O1        0.803213431859418    0.489997557089079    0.683574941527843  0.0000
  O3     O3        0.795781622176456    0.012680209594250    0.335149488603719  0.0000
  O3     O3        0.300276984736461    0.000201161312274    0.682410163182916  0.0000
  O1     O1        0.366806514506278    0.494807283746904    0.679713803170463  0.0000
  O1     O1        0.697756394760189    0.507481727511477    0.294273195041514  0.0000
  O1     O1        0.869767209216927    0.993277672746681    0.678106754874381  0.0000
  O1     O1        0.198305731267086    0.012810282511543    0.293376631855718  0.0000
