data_c00069.vasp
_audit_creation_method             Generated by GULP
_audit_author_name                 Salvador R. G. Balestra
_symmetry_space_group_name_H-M     'P 1             '
_symmetry_Int_Tables_number        1

loop_
_symmetry_equiv_pos_site_id
_symmetry_equiv_pos_as_xyz
_cell_length_a                       10.3060
_cell_length_b                       15.7992
_cell_length_c                        9.2874
_cell_angle_alpha                   89.3477
_cell_angle_beta                   105.9333
_cell_angle_gamma                   89.9544

loop_
_atom_site_label
_atom_site_type_symbol
_atom_site_fract_x
_atom_site_fract_y
_atom_site_fract_z
_atom_site_charge
  Ge     Ge        0.351599999999962    0.244500000000016    0.893900000000031  0.0000
  Ge     Ge        0.657891612715989    0.238612310981047    0.107206733360523  0.0000
  Ge     Ge        0.688448114456312    0.759092396382699    0.115906788485065  0.0000
  Ge     Ge        0.387105882364676    0.746901027272588    0.902637600262880  0.0000
  Ge     Ge        0.885374613676243    0.735942181614008    0.903713201001272  0.0000
  Ge     Ge        0.189414259278020    0.750205914614413    0.115908290732897  0.0000
  Ge     Ge        0.156967975104375    0.267798003858360    0.109614356696465  0.0000
  Ge     Ge        0.861867519434285    0.232616109641700    0.901356082585425  0.0000
  Ge     Ge        0.340042518595721    0.411068211059560    0.312553793374887  0.0000
  Ge     Ge        0.737940744718001    0.380604580923089    0.666155444002160  0.0000
  Ge     Ge        0.766540560065306    0.581205352074968    0.696949955032093  0.0000
  Ge     Ge        0.258373207951768    0.894456721798146    0.672707812837873  0.0000
  Ge     Ge        0.843838673044997    0.103257575240506    0.343579586174649  0.0000
  Ge     Ge        0.426101286982991    0.391075981073262    0.671778585100365  0.0000
  Ge     Ge        0.647750301945285    0.400991864628965    0.300075686132266  0.0000
  Ge     Ge        0.670978704233919    0.603742264848285    0.334199178003827  0.0000
  Ge     Ge        0.450577879088537    0.592759564461408    0.694374189315112  0.0000
  Ge     Ge        0.945310375894930    0.883599598921101    0.672728634760933  0.0000
  Ge     Ge        0.164987638719529    0.910279349190609    0.309851999524018  0.0000
  Ge     Ge        0.153244363302501    0.112823978423579    0.330304249777043  0.0000
  Ge     Ge        0.940850157977683    0.085038003749004    0.699709654108402  0.0000
  Si     Si        0.365719119866156    0.610897105754087    0.344355112142993  0.0000
  Si     Si        0.861043382922930    0.902626639737390    0.322644816106522  0.0000
  Si     Si        0.246354698824371    0.091105194373460    0.686792003571592  0.0000
  O1     O1        0.484209893175097    0.239705083855042    0.051277830378184  0.0000
  O1     O1        0.515114041351334    0.763141149167712    0.061176264384619  0.0000
  O1     O1        0.015940648770562    0.741256925334810    0.062155858601570  0.0000
  O1     O1        0.984034517851452    0.263541532975855    0.057097221572838  0.0000
  O3     O3        0.352423479179357    0.153098691239760    0.791704930445158  0.0000
  O1     O1        0.708581530012036    0.158018889305499    0.236220420120076  0.0000
  O3     O3        0.743819875366039    0.851687184683697    0.208872517397053  0.0000
  O1     O1        0.381035243199791    0.829157360126986    0.777881565548621  0.0000
  O1     O1        0.886405340363639    0.639945252158260    0.817835099852636  0.0000
  O3     O3        0.251363127641987    0.672992093462060    0.249581972239281  0.0000
  O1     O1        0.205562475295278    0.363722225156508    0.190794379103340  0.0000
  O1     O1        0.848668580431220    0.304762378370842    0.758411079771720  0.0000
  O1     O1        0.353570098587763    0.330239021608763    0.780655855521223  0.0000
  O1     O1        0.709762460044241    0.334649683960375    0.190613606564466  0.0000
  O1     O1        0.738401429001341    0.672587859953357    0.232484545625300  0.0000
  O1     O1        0.396627054661357    0.652412381570946    0.817975509518472  0.0000
  O1     O1        0.877965657768208    0.813788038057878    0.771699228394009  0.0000
  O1     O1        0.225877226148172    0.848943281857353    0.192882529743660  0.0000
  O1     O1        0.219878202502793    0.187926529730675    0.239005078839718  0.0000
  O1     O1        0.896285241818536    0.135377292824336    0.840478807704476  0.0000
  O1     O1        0.206731328950738    0.252485348959341    0.950178509482158  0.0000
  O1     O1        0.713646860174405    0.225853746047042    0.951825174757027  0.0000
  O1     O1        0.738614576383494    0.747384814084305    0.957123254187231  0.0000
  O1     O1        0.240783369332044    0.741061098897554    0.958200777864560  0.0000
  O1     O1        0.474099339017069    0.404153279683990    0.237544898045702  0.0000
  O1     O1        0.599037146275867    0.381764325992989    0.735328911037104  0.0000
  O1     O1        0.622203377906709    0.581717537469508    0.755726621770764  0.0000
  O3     O3        0.495433655678268    0.611622736847485    0.279438591540599  0.0000
  O3     O3        0.989500682007562    0.909033347206782    0.256746665730822  0.0000
  O1     O1        0.118412152964488    0.881552509530695    0.736873602527777  0.0000
  O3     O3        0.115417228446054    0.079901254578826    0.747306962114797  0.0000
  O1     O1        0.979295437598910    0.119675594252224    0.272771596731410  0.0000
  O1     O1        0.375191209547850    0.363263856382114    0.486180916658066  0.0000
  O1     O1        0.685581709047077    0.359914195322204    0.479144617664969  0.0000
  O1     O1        0.731278774474303    0.625303941508158    0.519952376583891  0.0000
  O3     O3        0.410774688593792    0.639061984031732    0.516835235158042  0.0000
  O3     O3        0.904544272567527    0.856918289175491    0.484599521258620  0.0000
  O1     O1        0.222763781327132    0.869238388782952    0.487375864681109  0.0000
  O3     O3        0.197769025414851    0.130963913331092    0.520536807596053  0.0000
  O1     O1        0.878557500563969    0.133422310480217    0.527932964476960  0.0000
  O3     O3        0.306480239612983    0.516417631506978    0.337201494884093  0.0000
  O1     O1        0.815473215856859    0.478071382558964    0.690142550112138  0.0000
  O3     O3        0.808827702571402    0.996108472315203    0.344227892095786  0.0000
  O3     O3        0.311845993921517    0.999170105953357    0.683965692230885  0.0000
  O1     O1        0.379918317625503    0.494449285138271    0.686994179510469  0.0000
  O1     O1        0.711618679387862    0.501144822321715    0.301541724921319  0.0000
  O1     O1        0.885434765690544    0.982597470368689    0.693503349798733  0.0000
  O1     O1        0.209386283025967    0.014165864654911    0.298620121324950  0.0000
