data_c00012.vasp
_audit_creation_method             Generated by GULP
_audit_author_name                 Salvador R. G. Balestra
_symmetry_space_group_name_H-M     'P 1             '
_symmetry_Int_Tables_number        1

loop_
_symmetry_equiv_pos_site_id
_symmetry_equiv_pos_as_xyz
_cell_length_a                       10.2337
_cell_length_b                       15.7979
_cell_length_c                        9.2321
_cell_angle_alpha                   90.0936
_cell_angle_beta                   104.8420
_cell_angle_gamma                   90.9291

loop_
_atom_site_label
_atom_site_type_symbol
_atom_site_fract_x
_atom_site_fract_y
_atom_site_fract_z
_atom_site_charge
  Ge     Ge        0.351599999999962    0.244500000000016    0.893900000000031  0.0000
  Ge     Ge        0.661338121174552    0.235491487544160    0.096264244190740  0.0000
  Ge     Ge        0.657126159851557    0.739751690526082    0.087137883957224  0.0000
  Ge     Ge        0.358084886580178    0.762950191521843    0.884109335967076  0.0000
  Ge     Ge        0.860563616621034    0.750205755322255    0.871925925112885  0.0000
  Ge     Ge        0.158568126354522    0.741522249581953    0.094965589981938  0.0000
  Ge     Ge        0.145230148163837    0.234913280128341    0.101165558055937  0.0000
  Ge     Ge        0.859279698661723    0.260560839202435    0.878807853904158  0.0000
  Ge     Ge        0.273404439804914    0.382805406393736    0.335046504517182  0.0000
  Ge     Ge        0.681411243952930    0.406345583361162    0.676187702778310  0.0000
  Ge     Ge        0.678257177429586    0.610008496445298    0.640282938740319  0.0000
  Ge     Ge        0.265276256807088    0.583450863839686    0.298791527912774  0.0000
  Ge     Ge        0.779121387112212    0.886323109915879    0.322748872635008  0.0000
  Ge     Ge        0.177496067931607    0.908205807358926    0.675017003437072  0.0000
  Ge     Ge        0.173218737734241    0.112522130994306    0.639190104601702  0.0000
  Ge     Ge        0.372045992394497    0.406395214233309    0.701199349366171  0.0000
  Ge     Ge        0.584936832901534    0.383252860725340    0.319053003268165  0.0000
  Ge     Ge        0.578478044752872    0.585565750154819    0.282843054507029  0.0000
  Ge     Ge        0.367790300527453    0.608888379402809    0.662911689251015  0.0000
  Ge     Ge        0.090658170440404    0.889035094137054    0.315689898512440  0.0000
  Ge     Ge        0.853119475185234    0.107085974657208    0.652238128507969  0.0000
  Si     Si        0.764354846609273    0.080159310681415    0.307657448129841  0.0000
  Si     Si        0.869515611874261    0.909010324858323    0.681782704503211  0.0000
  Si     Si        0.076302779473139    0.085764979283201    0.298688237921358  0.0000
  O1     O1        0.525114241217983    0.234431631519198    0.945466403154378  0.0000
  O1     O1        0.531667111184568    0.766710843587211    0.933211707859055  0.0000
  O1     O1        0.033918142729606    0.745507084850677    0.931773143527748  0.0000
  O1     O1        0.032696212545973    0.261581970685959    0.936733953346267  0.0000
  O1     O1        0.294251824706690    0.177835759788360    0.744001378957248  0.0000
  O3     O3        0.674934931734431    0.136052418842822    0.179187318250865  0.0000
  O1     O1        0.666179146494519    0.811104716151424    0.231196428000950  0.0000
  O1     O1        0.299304456648118    0.857126898434373    0.803730617947392  0.0000
  O1     O1        0.807228300919816    0.673409159889105    0.738331826096499  0.0000
  O1     O1        0.148410648633566    0.648627911237369    0.189893672437429  0.0000
  O1     O1        0.158505696688173    0.308632440991319    0.239683259075625  0.0000
  O1     O1        0.813230808545444    0.354060857066326    0.789194284285164  0.0000
  O1     O1        0.315936307975907    0.346000996760224    0.827556421427931  0.0000
  O1     O1        0.655493175235403    0.314136094427189    0.220800256965215  0.0000
  O1     O1        0.631318333564479    0.639773959989755    0.147832922380658  0.0000
  O1     O1        0.300437924273149    0.681711396741078    0.757673744705694  0.0000
  O3     O3        0.811887672051556    0.847744206612050    0.789353787354541  0.0000
  O1     O1        0.165077268868332    0.827498555644628    0.209886215499259  0.0000
  O3     O3        0.089405079869151    0.138411933051117    0.156088269580108  0.0000
  O1     O1        0.794423071592700    0.176484581348218    0.760987229559794  0.0000
  O1     O1        0.293981703431456    0.222694240526384    0.048563095882906  0.0000
  O1     O1        0.806111677566815    0.252410288006182    0.039651271092955  0.0000
  O1     O1        0.803831277290076    0.737579533765746    0.028907630943670  0.0000
  O1     O1        0.309849803276072    0.743855800058293    0.045390796683987  0.0000
  O1     O1        0.411116450163979    0.378382043800895    0.260355113614314  0.0000
  O1     O1        0.546385876232811    0.408687645896314    0.754586162438351  0.0000
  O1     O1        0.542210428915034    0.615979578898997    0.716902918243210  0.0000
  O1     O1        0.405519290805023    0.575645039704646    0.230197883068084  0.0000
  O1     O1        0.918779508586033    0.874632303435885    0.254078281949691  0.0000
  O3     O3        0.031904201731176    0.911255303925945    0.737325849134829  0.0000
  O1     O1        0.024313947628784    0.125212543729362    0.689739197060022  0.0000
  O2     O2        0.921225697728604    0.067106128898146    0.304621825152932  0.0000
  O1     O1        0.319804478176033    0.363179598195230    0.523304404157618  0.0000
  O1     O1        0.630150660324802    0.356892180477328    0.504926413112284  0.0000
  O1     O1        0.630840181092981    0.636306114392389    0.453700196593942  0.0000
  O1     O1        0.316948546056715    0.627697260635065    0.474812119709471  0.0000
  O3     O3        0.827953896922530    0.871077375603926    0.513723413017050  0.0000
  O1     O1        0.145622422153931    0.861711276652940    0.501238034683647  0.0000
  O3     O3        0.149309918920043    0.136217278438367    0.449681345988009  0.0000
  O3     O3        0.770618828860821    0.124048260806941    0.466425289133254  0.0000
  O1     O1        0.204355748284451    0.482340033933551    0.309389550123096  0.0000
  O1     O1        0.732783444077039    0.507436051663376    0.649935532214820  0.0000
  O3     O3        0.704909931867829    0.985104937587766    0.293156031301149  0.0000
  O1     O1        0.228909818050729    0.010954035204789    0.663534861888411  0.0000
  O1     O1        0.316121960882779    0.508119174074620    0.697457551763535  0.0000
  O1     O1        0.640455126381250    0.484469400504361    0.296748631010110  0.0000
  O3     O3        0.815317259839460    0.003038385500703    0.688373645601068  0.0000
  O3     O3        0.138577126322829    0.993721325052587    0.295893275255399  0.0000
