data_c00026.vasp
_audit_creation_method             Generated by GULP
_audit_author_name                 Salvador R. G. Balestra
_symmetry_space_group_name_H-M     'P 1             '
_symmetry_Int_Tables_number        1

loop_
_symmetry_equiv_pos_site_id
_symmetry_equiv_pos_as_xyz
_cell_length_a                       10.3210
_cell_length_b                       15.8029
_cell_length_c                        9.2537
_cell_angle_alpha                   90.5874
_cell_angle_beta                   105.0193
_cell_angle_gamma                   90.2312

loop_
_atom_site_label
_atom_site_type_symbol
_atom_site_fract_x
_atom_site_fract_y
_atom_site_fract_z
_atom_site_charge
  Ge     Ge        0.351599999999962    0.244500000000016    0.893900000000031  0.0000
  Ge     Ge        0.651430849823815    0.243050428849521    0.109548629254373  0.0000
  Ge     Ge        0.646313359156092    0.743222341358520    0.095860628899647  0.0000
  Ge     Ge        0.345758559473216    0.761069410737261    0.891517622508015  0.0000
  Ge     Ge        0.847867758789167    0.750377929326425    0.879993197801545  0.0000
  Ge     Ge        0.145012631850061    0.741794285539844    0.099135363974193  0.0000
  Ge     Ge        0.142544055727223    0.238819312161624    0.096813337747414  0.0000
  Ge     Ge        0.846375095365177    0.260620239157068    0.889452022256099  0.0000
  Ge     Ge        0.271370933328989    0.385504212149092    0.333881677618678  0.0000
  Ge     Ge        0.673049589539834    0.405178586469412    0.671230418664863  0.0000
  Ge     Ge        0.668642476813774    0.608164949250188    0.650341406197321  0.0000
  Ge     Ge        0.260579570002644    0.587265197233930    0.303524613400846  0.0000
  Ge     Ge        0.764137328034369    0.892471029841886    0.329366348808172  0.0000
  Ge     Ge        0.164056720723529    0.904205097256181    0.678909897000874  0.0000
  Ge     Ge        0.165275549258352    0.109234320107704    0.655852251849486  0.0000
  Ge     Ge        0.364745046198608    0.404978468526440    0.696213287508441  0.0000
  Ge     Ge        0.568714031487090    0.589860261051168    0.291536049019119  0.0000
  Ge     Ge        0.360443534982552    0.607642422659988    0.668518361319996  0.0000
  Ge     Ge        0.077025762376224    0.888110568600087    0.325113991808524  0.0000
  Ge     Ge        0.065076271624083    0.091493501168696    0.302613726669928  0.0000
  Ge     Ge        0.856333241590850    0.104818323351792    0.673665412275231  0.0000
  Si     Si        0.760541856425572    0.089111964727255    0.315710262859053  0.0000
  Si     Si        0.575677272111021    0.390423252773037    0.320264038432346  0.0000
  Si     Si        0.856878940032100    0.907666569999975    0.687154365014445  0.0000
  O1     O1        0.523648644235275    0.235726374687067    0.950748500798107  0.0000
  O1     O1        0.518119696924651    0.764512742352075    0.941969796813184  0.0000
  O1     O1        0.019796746683762    0.743163259296204    0.937231677311423  0.0000
  O1     O1        0.018738475575830    0.264672621681985    0.942231447515678  0.0000
  O1     O1        0.295007789986166    0.169258324843479    0.757582522173067  0.0000
  O3     O3        0.655005887130742    0.152731308823525    0.215551504788270  0.0000
  O1     O1        0.651047506935788    0.819860123580376    0.232054182458438  0.0000
  O1     O1        0.285710730707730    0.854793847402420    0.809809728066044  0.0000
  O1     O1        0.794272897918636    0.672218921486500    0.749673986509985  0.0000
  O1     O1        0.138984529295808    0.650819430094210    0.198334950648201  0.0000
  O1     O1        0.157455112481574    0.314063769037964    0.235669783267477  0.0000
  O1     O1        0.798598980939213    0.349038279136156    0.784712474632681  0.0000
  O1     O1        0.309556768211065    0.343146704802474    0.818538414178250  0.0000
  O3     O3        0.637624821186005    0.331274895583295    0.215294881262256  0.0000
  O1     O1        0.631019643127064    0.644342507260456    0.165703931962554  0.0000
  O1     O1        0.291744328445465    0.679222296605212    0.765374449556479  0.0000
  O3     O3        0.801309805420396    0.847436300772280    0.795426345149397  0.0000
  O1     O1        0.145423376494035    0.828865277016140    0.210294187964616  0.0000
  O1     O1        0.109302634855482    0.141949820835804    0.161049350437342  0.0000
  O1     O1        0.788789282894703    0.173117657205139    0.776767330084852  0.0000
  O1     O1        0.291189560950545    0.231128580309255    0.047126213459351  0.0000
  O1     O1        0.795562107454861    0.255742490008360    0.051673222970958  0.0000
  O1     O1        0.791458036685242    0.742215138603972    0.037177498607436  0.0000
  O1     O1        0.295203638730293    0.744631938729627    0.050585772612262  0.0000
  O3     O3        0.414126287974733    0.386220130965364    0.267149497422635  0.0000
  O1     O1        0.537509261444185    0.405873645075290    0.745946814431046  0.0000
  O1     O1        0.533322227690385    0.612759163891450    0.726316966949009  0.0000
  O1     O1        0.397568462459752    0.587506155714011    0.229862047134137  0.0000
  O1     O1        0.904832331856088    0.882484641242304    0.265139376219396  0.0000
  O3     O3        0.018403781161013    0.909383780614659    0.738481954119855  0.0000
  O1     O1        0.027731987073021    0.117112302321966    0.728435268829027  0.0000
  O3     O3        0.891681514800499    0.083411957955274    0.253242479615762  0.0000
  O1     O1        0.311299584630540    0.361499289897689    0.519181493513428  0.0000
  O3     O3        0.623113193490302    0.361463106473332    0.492018009062078  0.0000
  O1     O1        0.620156813301957    0.636748799617850    0.465520315315684  0.0000
  O1     O1        0.313613763444120    0.628937150465400    0.481582385787521  0.0000
  O3     O3        0.809071967514996    0.871302294764191    0.518450802194313  0.0000
  O1     O1        0.130503377365529    0.854511522554210    0.507279950658706  0.0000
  O1     O1        0.121518742939257    0.141839341790381    0.472454400614969  0.0000
  O3     O3        0.804673808820534    0.125308837046184    0.484521445375958  0.0000
  O1     O1        0.204453340306685    0.485789187072628    0.310761210529382  0.0000
  O1     O1        0.727746863564098    0.506436249292494    0.660335005384607  0.0000
  O3     O3        0.699994279631962    0.994623033263593    0.309338060978474  0.0000
  O1     O1        0.214836482145659    0.005727873023347    0.659556811031186  0.0000
  O1     O1        0.308382356602623    0.506667567366540    0.696450801657217  0.0000
  O3     O3        0.625187596405098    0.486139455899963    0.308010467056138  0.0000
  O3     O3        0.805270968109953    0.002493328438587    0.697715794346908  0.0000
  O1     O1        0.128013395507090    0.991150528762918    0.318770095835318  0.0000
