data_c00009.vasp
_audit_creation_method             Generated by GULP
_audit_author_name                 Salvador R. G. Balestra
_symmetry_space_group_name_H-M     'P 1             '
_symmetry_Int_Tables_number        1

loop_
_symmetry_equiv_pos_site_id
_symmetry_equiv_pos_as_xyz
_cell_length_a                       10.3121
_cell_length_b                       15.8528
_cell_length_c                        9.2733
_cell_angle_alpha                   90.3867
_cell_angle_beta                   105.0201
_cell_angle_gamma                   89.2762

loop_
_atom_site_label
_atom_site_type_symbol
_atom_site_fract_x
_atom_site_fract_y
_atom_site_fract_z
_atom_site_charge
  Ge     Ge        0.351599999999962    0.244500000000016    0.893900000000031  0.0000
  Ge     Ge        0.654631786722184    0.256727484626733    0.097926771554747  0.0000
  Ge     Ge        0.634401168453499    0.760891206368137    0.096271169389079  0.0000
  Ge     Ge        0.333332527948387    0.763534464394022    0.887672489282636  0.0000
  Ge     Ge        0.837147901867010    0.755657778389952    0.886109789985883  0.0000
  Ge     Ge        0.134104075870730    0.761320048909792    0.102353182988239  0.0000
  Ge     Ge        0.146906471565025    0.251614370800444    0.099346424835671  0.0000
  Ge     Ge        0.852879683194520    0.264368332526001    0.877197300609353  0.0000
  Ge     Ge        0.262205281840064    0.404743296780298    0.317767292017547  0.0000
  Ge     Ge        0.670508698827647    0.406675259257111    0.661436772999463  0.0000
  Ge     Ge        0.660174387074427    0.611612470713721    0.665620652120103  0.0000
  Ge     Ge        0.254671491988478    0.606940252269820    0.319095014033236  0.0000
  Ge     Ge        0.751860761182095    0.914381186369696    0.312497159176905  0.0000
  Ge     Ge        0.155255416543392    0.903765628338998    0.657426370971800  0.0000
  Ge     Ge        0.163389111479319    0.108170744424706    0.663363006187045  0.0000
  Ge     Ge        0.362251528216322    0.402061228815497    0.683095702600828  0.0000
  Ge     Ge        0.573825799305724    0.406816129340549    0.304661649194574  0.0000
  Ge     Ge        0.565629399785885    0.610436085190878    0.309132724466519  0.0000
  Ge     Ge        0.351786497988057    0.605052544020259    0.685212520224949  0.0000
  Ge     Ge        0.846734913274208    0.912613211181017    0.679423703879961  0.0000
  Ge     Ge        0.067549555784290    0.107101920386934    0.310187136119085  0.0000
  Si     Si        0.765153155896246    0.109818150967679    0.317122714640483  0.0000
  Si     Si        0.058631540761285    0.906473114122560    0.309795388085334  0.0000
  Si     Si        0.859247161050286    0.108670409235501    0.674088243346701  0.0000
  O1     O1        0.523930214824099    0.236205563342109    0.946327171659074  0.0000
  O1     O1        0.505914232105795    0.769266651761665    0.938841461149158  0.0000
  O1     O1        0.009779466745857    0.751041155825818    0.941289749760785  0.0000
  O1     O1        0.024641586030732    0.265164076691189    0.936268068723612  0.0000
  O1     O1        0.291030322246133    0.159767896996911    0.782596223347081  0.0000
  O3     O3        0.662279042266856    0.181448333870336    0.237164458964677  0.0000
  O1     O1        0.635225252480272    0.848280886563764    0.208742273089281  0.0000
  O1     O1        0.281543055000810    0.843132415086977    0.761529229426564  0.0000
  O1     O1        0.786997699213784    0.669851054441434    0.773149821417833  0.0000
  O1     O1        0.138027206311616    0.676212012153674    0.216935175788689  0.0000
  O1     O1        0.146603736517406    0.334987570000379    0.218848802105487  0.0000
  O1     O1        0.802453465853151    0.353526473788362    0.775619538637949  0.0000
  O1     O1        0.301606692790993    0.335482215429624    0.792824530170636  0.0000
  O1     O1        0.635223314673904    0.352488480896436    0.176417646161688  0.0000
  O1     O1        0.627708706319655    0.669519300833436    0.190618187757334  0.0000
  O1     O1        0.285828490991314    0.668918049019123    0.797724602235129  0.0000
  O1     O1        0.782321125976225    0.847072099741436    0.787394909320239  0.0000
  O3     O3        0.119007850392780    0.854432560155665    0.194583476310098  0.0000
  O1     O1        0.130186457398243    0.157331576549212    0.182463697442859  0.0000
  O3     O3        0.795274242126871    0.179000172524959    0.758698410893944  0.0000
  O1     O1        0.298035203181722    0.247194208090856    0.053553446231456  0.0000
  O1     O1        0.797307485299494    0.258791093170307    0.035668774725327  0.0000
  O1     O1        0.782591340132434    0.754855247211491    0.044446331182018  0.0000
  O1     O1        0.280894872792901    0.770183331671481    0.047709848462079  0.0000
  O1     O1        0.401226036070664    0.406567608510300    0.248131863220939  0.0000
  O1     O1        0.535190248211325    0.400377814690776    0.737099519496087  0.0000
  O1     O1        0.524746342480993    0.610094544377580    0.741089220841848  0.0000
  O1     O1        0.393270164496645    0.608503571369095    0.248744927561012  0.0000
  O3     O3        0.897508009270018    0.906502503362951    0.253105984711292  0.0000
  O1     O1        0.018187908279158    0.899761130247926    0.729491707166007  0.0000
  O3     O3        0.020457620199175    0.113225514232754    0.729715427696530  0.0000
  O3     O3        0.894271090039803    0.115330141252348    0.250824567680691  0.0000
  O1     O1        0.312872337405292    0.371505958165910    0.499483815347456  0.0000
  O1     O1        0.627969069008433    0.366722278384721    0.482430125799557  0.0000
  O1     O1        0.610855223756618    0.651041656831029    0.487167385884760  0.0000
  O1     O1        0.300562794295432    0.637659228801608    0.502796582746422  0.0000
  O1     O1        0.782108179085521    0.886273372301581    0.495598186760660  0.0000
  O3     O3        0.104207433039605    0.866705624034631    0.474644807471130  0.0000
  O1     O1        0.129988877338771    0.148570750193355    0.485654442892418  0.0000
  O2     O2        0.821028722179634    0.123217589473910    0.495437571006462  0.0000
  O1     O1        0.195630329079323    0.505329511847985    0.309576698923869  0.0000
  O1     O1        0.715167537539007    0.509773862566087    0.653182803939549  0.0000
  O3     O3        0.697093911966676    0.018754615044165    0.288686172327173  0.0000
  O1     O1        0.211291303760003    0.004686950414935    0.659444406871191  0.0000
  O1     O1        0.303618901137620    0.502848460515694    0.697842823297286  0.0000
  O1     O1        0.626767105122152    0.509297138445808    0.309472771327119  0.0000
  O3     O3        0.808083824380202    0.017503259616687    0.706511496429974  0.0000
  O3     O3        0.112519031915433    0.001551943312967    0.319624380542476  0.0000
