data_c00068.vasp
_audit_creation_method             Generated by GULP
_audit_author_name                 Salvador R. G. Balestra
_symmetry_space_group_name_H-M     'P 1             '
_symmetry_Int_Tables_number        1

loop_
_symmetry_equiv_pos_site_id
_symmetry_equiv_pos_as_xyz
_cell_length_a                       10.3180
_cell_length_b                       15.8050
_cell_length_c                        9.2890
_cell_angle_alpha                   90.7207
_cell_angle_beta                   106.0851
_cell_angle_gamma                   90.0062

loop_
_atom_site_label
_atom_site_type_symbol
_atom_site_fract_x
_atom_site_fract_y
_atom_site_fract_z
_atom_site_charge
  Ge     Ge        0.351599999999962    0.244500000000016    0.893900000000031  0.0000
  Ge     Ge        0.649862361536496    0.214561605888351    0.101708529045165  0.0000
  Ge     Ge        0.657414023535637    0.737144735316517    0.105256857273250  0.0000
  Ge     Ge        0.353238607906560    0.742841944703352    0.891769048243137  0.0000
  Ge     Ge        0.855009121736933    0.742714487349192    0.892048361746392  0.0000
  Ge     Ge        0.156015010095520    0.719185069240072    0.102719572972603  0.0000
  Ge     Ge        0.147256708247754    0.235976015920432    0.099427897124588  0.0000
  Ge     Ge        0.842073516954663    0.237268528740415    0.884818644944231  0.0000
  Ge     Ge        0.326495137877799    0.375561537718651    0.332850910608130  0.0000
  Ge     Ge        0.735144248488822    0.395342316757043    0.681613272854722  0.0000
  Ge     Ge        0.728906071735191    0.595545931196887    0.657311985815097  0.0000
  Ge     Ge        0.236276334440163    0.897859155807940    0.684372017233194  0.0000
  Ge     Ge        0.220172327605320    0.099179169708187    0.655412964599472  0.0000
  Ge     Ge        0.421291470681353    0.395731592643246    0.691353279869076  0.0000
  Ge     Ge        0.635949611442872    0.370999159510538    0.317822514124377  0.0000
  Ge     Ge        0.633161628093466    0.575624347055324    0.294900861565945  0.0000
  Ge     Ge        0.415644061468058    0.596211916313861    0.659574982973363  0.0000
  Ge     Ge        0.919093735308035    0.893856867880152    0.682898026597573  0.0000
  Ge     Ge        0.139869412166777    0.872582376579454    0.323379992977892  0.0000
  Ge     Ge        0.129300898308321    0.077365497978922    0.293081506232845  0.0000
  Ge     Ge        0.905759178051013    0.093853143573559    0.652668419281525  0.0000
  Si     Si        0.330365034938865    0.576525387757132    0.307787992626156  0.0000
  Si     Si        0.835533401724425    0.874388716646414    0.331688300683095  0.0000
  Si     Si        0.827511431264969    0.072868894847528    0.300679848224169  0.0000
  O1     O1        0.476497422518023    0.214867192941191    0.048485666973624  0.0000
  O1     O1        0.483602345390018    0.739774201773432    0.051122357082431  0.0000
  O1     O1        0.982635180058962    0.719215338147077    0.047668363534126  0.0000
  O1     O1        0.973639025570181    0.231429223560926    0.041848329842985  0.0000
  O1     O1        0.335893730932545    0.171116141845444    0.752426976345035  0.0000
  O3     O3        0.702358307801733    0.119248346423241    0.189521772176097  0.0000
  O3     O3        0.713334472524839    0.818470490911253    0.234313480481961  0.0000
  O1     O1        0.354061841460394    0.839002249032474    0.807177642739223  0.0000
  O1     O1        0.845705712254666    0.665923251941424    0.757294774203804  0.0000
  O3     O3        0.209644653658057    0.626113635693396    0.195458310680297  0.0000
  O1     O1        0.194441282272915    0.316547410616702    0.229084781446139  0.0000
  O1     O1        0.849544514364633    0.333226363952974    0.801534786345000  0.0000
  O1     O1        0.376451590761457    0.342305534362728    0.829143259924630  0.0000
  O1     O1        0.705064494367425    0.299451544068209    0.221217371913060  0.0000
  O1     O1        0.697084114244072    0.638836162913397    0.182903607961309  0.0000
  O1     O1        0.348037603722582    0.665420345184010    0.759456020965396  0.0000
  O1     O1        0.868485003538672    0.838592315302171    0.813897130879321  0.0000
  O1     O1        0.208340232291751    0.804829636447979    0.221170060125857  0.0000
  O1     O1        0.194796253577057    0.138999540663049    0.180737948331617  0.0000
  O1     O1        0.831365174864849    0.161222094690709    0.748728565123273  0.0000
  O1     O1        0.204103446268591    0.249870976665024    0.946210428588726  0.0000
  O1     O1        0.696897834239092    0.226992353514557    0.940702165886480  0.0000
  O1     O1        0.709092054607285    0.747161965875824    0.947903480179401  0.0000
  O1     O1        0.206579016778902    0.730181096959661    0.944155237858907  0.0000
  O1     O1        0.462088328386172    0.361810370222566    0.261749409287632  0.0000
  O1     O1        0.593445560522814    0.403920970246448    0.743174434362910  0.0000
  O1     O1        0.588720716483266    0.599454016728818    0.723503646150199  0.0000
  O3     O3        0.457547800209702    0.573789614144049    0.239270291254023  0.0000
  O3     O3        0.964661436721493    0.861249149680174    0.269136724501737  0.0000
  O1     O1        0.091072935169759    0.901345322375980    0.740530291038991  0.0000
  O1     O1        0.078550387052341    0.101534490404529    0.719511565642810  0.0000
  O3     O3        0.953624390872474    0.077972400806880    0.232019276966554  0.0000
  O1     O1        0.366238385872262    0.347152983292363    0.517975104374050  0.0000
  O1     O1        0.688761280195128    0.350299055149975    0.505257572131763  0.0000
  O1     O1        0.684406871349236    0.619228782147703    0.471102123533558  0.0000
  O3     O3        0.372814597305185    0.621591014216826    0.470587959483749  0.0000
  O3     O3        0.870613489280711    0.847873831313743    0.504611821613666  0.0000
  O1     O1        0.199309581509848    0.851097206608631    0.509296638219160  0.0000
  O1     O1        0.176226346192535    0.122012893877293    0.468962236768408  0.0000
  O3     O3        0.862874061006874    0.117606381914027    0.463220739248227  0.0000
  O3     O3        0.283428585480455    0.481638265959305    0.328064692649813  0.0000
  O1     O1        0.796346963821759    0.495273459389476    0.674123366579625  0.0000
  O2     O2        0.796232727888420    0.974075477489587    0.323728411603933  0.0000
  O1     O1        0.290021487050715    0.999533925017811    0.676257488625352  0.0000
  O1     O1        0.358294111398759    0.496714471132341    0.681432068334902  0.0000
  O1     O1        0.684040451493048    0.472741629417821    0.289406603133019  0.0000
  O1     O1        0.853769151210893    0.993582117788438    0.677334699830333  0.0000
  O1     O1        0.182261071242206    0.974999220324238    0.293234392150170  0.0000
