data_c00073.vasp
_audit_creation_method             Generated by GULP
_audit_author_name                 Salvador R. G. Balestra
_symmetry_space_group_name_H-M     'P 1             '
_symmetry_Int_Tables_number        1

loop_
_symmetry_equiv_pos_site_id
_symmetry_equiv_pos_as_xyz
_cell_length_a                       10.2666
_cell_length_b                       15.7871
_cell_length_c                        9.3246
_cell_angle_alpha                   90.0263
_cell_angle_beta                   104.9740
_cell_angle_gamma                   89.7621

loop_
_atom_site_label
_atom_site_type_symbol
_atom_site_fract_x
_atom_site_fract_y
_atom_site_fract_z
_atom_site_charge
  Ge     Ge        0.351599999999962    0.244500000000016    0.893900000000031  0.0000
  Ge     Ge        0.657334292763523    0.240898483875653    0.101807078315337  0.0000
  Ge     Ge        0.647295540853513    0.754918878715413    0.106629965925184  0.0000
  Ge     Ge        0.346273706318183    0.744526616314872    0.898159621385113  0.0000
  Ge     Ge        0.848772661896517    0.746392903446935    0.897215995720175  0.0000
  Ge     Ge        0.145876895671794    0.745904221197044    0.113365349268521  0.0000
  Ge     Ge        0.145761018192903    0.247350323277634    0.104786371059590  0.0000
  Ge     Ge        0.324459198487012    0.393632479746716    0.323551172345027  0.0000
  Ge     Ge        0.729004852910984    0.389286747380871    0.677265057960031  0.0000
  Ge     Ge        0.733080042511557    0.592024719209360    0.683580163684439  0.0000
  Ge     Ge        0.325725377873352    0.599555113333334    0.332906341642110  0.0000
  Ge     Ge        0.830349180489296    0.894984956140096    0.329390991868270  0.0000
  Ge     Ge        0.234301434633873    0.894096623055549    0.668734212239177  0.0000
  Ge     Ge        0.240814664987279    0.094177136379676    0.669548035259039  0.0000
  Ge     Ge        0.832256030072438    0.102223660193104    0.334311071098364  0.0000
  Ge     Ge        0.413507708720596    0.392301390096679    0.678221105821246  0.0000
  Ge     Ge        0.638497291696404    0.395041980577889    0.314361452733930  0.0000
  Ge     Ge        0.637840261002044    0.598670356197488    0.320708369774326  0.0000
  Ge     Ge        0.418698931258197    0.595905216566703    0.687839003217899  0.0000
  Ge     Ge        0.920007381559350    0.895148959890544    0.681603281195486  0.0000
  Ge     Ge        0.925071205275219    0.099050626332636    0.685143578769084  0.0000
  Si     Si        0.853929149934901    0.242911936210790    0.895428919786578  0.0000
  Si     Si        0.133534496451035    0.899220479941669    0.314265710687868  0.0000
  Si     Si        0.136590842244473    0.097191859278072    0.317157937537957  0.0000
  O1     O1        0.484322069734838    0.237487484504466    0.047002709537673  0.0000
  O1     O1        0.473929042888918    0.759021556871629    0.055173921466203  0.0000
  O1     O1        0.973454417776149    0.738436882259230    0.058400171335687  0.0000
  O3     O3        0.971732816591389    0.257351707809530    0.043944530533787  0.0000
  O1     O1        0.355282601892637    0.163083849711497    0.771386929791674  0.0000
  O1     O1        0.705301985246597    0.154481408160824    0.213613526189787  0.0000
  O1     O1        0.702130873383534    0.844313771272404    0.208622062924912  0.0000
  O1     O1        0.346037010148854    0.821726638907307    0.767102980961933  0.0000
  O1     O1        0.850821226918755    0.659705571085176    0.785724336268877  0.0000
  O1     O1        0.200668576209375    0.660851535110409    0.225616891699494  0.0000
  O1     O1        0.199472478733887    0.334999978841655    0.210334013766849  0.0000
  O3     O3        0.847273726209276    0.319146697213194    0.778993637951499  0.0000
  O1     O1        0.347776244522926    0.338140931954481    0.800708561461036  0.0000
  O1     O1        0.706075918928416    0.331368490154144    0.203508337078198  0.0000
  O1     O1        0.702492369654820    0.667104335417517    0.215553418727878  0.0000
  O1     O1        0.356661741962529    0.648669333578662    0.815648140459808  0.0000
  O1     O1        0.858264543520211    0.838526158189217    0.804421129850979  0.0000
  O3     O3        0.196177146060208    0.840406791053528    0.209713803580043  0.0000
  O3     O3        0.195641938878294    0.155746698246360    0.209839237457819  0.0000
  O3     O3        0.873629009743152    0.154637355584298    0.819545379182900  0.0000
  O1     O1        0.205641072177714    0.240318572943149    0.951307528308270  0.0000
  O3     O3        0.713802703969966    0.239810193304435    0.942940886815737  0.0000
  O1     O1        0.698131461308410    0.749561832547478    0.946472785204761  0.0000
  O1     O1        0.199316319894515    0.746301865403940    0.954211705572777  0.0000
  O1     O1        0.465027912429688    0.392983855145535    0.255590068297320  0.0000
  O1     O1        0.586784056840450    0.390855054972258    0.741034741561062  0.0000
  O1     O1        0.591413777883403    0.592467307492581    0.749729371012179  0.0000
  O1     O1        0.464448213653941    0.601131713345992    0.261859065580540  0.0000
  O3     O3        0.972185183798374    0.890491582374343    0.261085624606515  0.0000
  O1     O1        0.093306424219574    0.893914862130404    0.734922165668691  0.0000
  O1     O1        0.097601599499424    0.094367881504737    0.731872893122240  0.0000
  O3     O3        0.975715023319691    0.108852248711858    0.269751396572486  0.0000
  O1     O1        0.366408643461914    0.352660299069630    0.500695399831448  0.0000
  O1     O1        0.685783568595938    0.359280288749597    0.494516139934762  0.0000
  O1     O1        0.685539660497341    0.627783161901966    0.503672739071223  0.0000
  O1     O1        0.370214652331772    0.637978898002568    0.511775140798505  0.0000
  O1     O1        0.865511550291939    0.853502249795021    0.505308898528930  0.0000
  O3     O3        0.184489361506386    0.867158114961073    0.482556738020872  0.0000
  O3     O3        0.195830825064222    0.126430480354614    0.485651155611135  0.0000
  O1     O1        0.866349884639932    0.142744279130753    0.511436105285335  0.0000
  O1     O1        0.271470637796083    0.496583668968680    0.331002790764767  0.0000
  O1     O1        0.794264472040003    0.490165842208419    0.689473790422902  0.0000
  O1     O1        0.786963680169312    0.998882931458804    0.343745148100821  0.0000
  O1     O1        0.304813821642213    0.993135745037581    0.685486238398692  0.0000
  O1     O1        0.357075411829931    0.494609472491830    0.672824976096396  0.0000
  O1     O1        0.693357962121403    0.496937719800957    0.306071750257883  0.0000
  O1     O1        0.864658237862320    0.997873236939936    0.682095733329051  0.0000
  O2     O2        0.175046207155861    0.997846542156607    0.305967878791033  0.0000
