data_c00149.vasp
_audit_creation_method             Generated by GULP
_audit_author_name                 Salvador R. G. Balestra
_symmetry_space_group_name_H-M     'P 1             '
_symmetry_Int_Tables_number        1

loop_
_symmetry_equiv_pos_site_id
_symmetry_equiv_pos_as_xyz
_cell_length_a                       10.2559
_cell_length_b                       15.8090
_cell_length_c                        9.2647
_cell_angle_alpha                   89.6575
_cell_angle_beta                   105.5144
_cell_angle_gamma                   89.1705

loop_
_atom_site_label
_atom_site_type_symbol
_atom_site_fract_x
_atom_site_fract_y
_atom_site_fract_z
_atom_site_charge
  Ge     Ge        0.351599999999962    0.244500000000016    0.893900000000031  0.0000
  Ge     Ge        0.657299815795687    0.269542283745018    0.092801454131129  0.0000
  Ge     Ge        0.650034170949644    0.766356702012045    0.109961876779532  0.0000
  Ge     Ge        0.346982876637520    0.755877054209359    0.892697039449646  0.0000
  Ge     Ge        0.840433046098393    0.747322452769678    0.888969627543833  0.0000
  Ge     Ge        0.138978984720870    0.765504466812289    0.096663805494758  0.0000
  Ge     Ge        0.148949978847093    0.264911315421769    0.101916817206343  0.0000
  Ge     Ge        0.272413268263291    0.418289035133774    0.306196694429504  0.0000
  Ge     Ge        0.677989268971806    0.399774620742277    0.662033424233229  0.0000
  Ge     Ge        0.273632412470518    0.620816831403568    0.334833347926336  0.0000
  Ge     Ge        0.751744356194416    0.925284819292975    0.311566405230714  0.0000
  Ge     Ge        0.165848583723917    0.896136522648341    0.657079839273346  0.0000
  Ge     Ge        0.175419936940347    0.099645687949347    0.683513027853185  0.0000
  Ge     Ge        0.769898412269400    0.123728460677987    0.336446886133015  0.0000
  Ge     Ge        0.365554498495045    0.394796962550420    0.668414913136941  0.0000
  Ge     Ge        0.587737886272644    0.417757283288711    0.300754918971692  0.0000
  Ge     Ge        0.589832009926250    0.619473601982812    0.336739661083457  0.0000
  Ge     Ge        0.364087354327598    0.597117109018556    0.694961647235770  0.0000
  Ge     Ge        0.855696473570915    0.905521838536766    0.677910382405227  0.0000
  Ge     Ge        0.066538192694315    0.916963747124341    0.300874723523673  0.0000
  Ge     Ge        0.085877350847702    0.118657646834482    0.329038633899000  0.0000
  Si     Si        0.857166176396343    0.259620839321665    0.883933295866452  0.0000
  Si     Si        0.671831460420427    0.598792075788353    0.688766602546274  0.0000
  Si     Si        0.867384258268906    0.103003944618137    0.694316364432525  0.0000
  O1     O1        0.525460990536371    0.244784219547112    0.944446208596767  0.0000
  O1     O1        0.521290454572791    0.758284689759572    0.951026934891017  0.0000
  O1     O1        0.014496134066966    0.740637119118544    0.939648485544089  0.0000
  O3     O3        0.019405467710695    0.263516876314701    0.939020303360157  0.0000
  O1     O1        0.297233746153406    0.148922545119071    0.816076876736227  0.0000
  O1     O1        0.663612108097761    0.200529678109804    0.239584882650197  0.0000
  O1     O1        0.637567263875737    0.860898920389465    0.197553846807463  0.0000
  O1     O1        0.293275845962681    0.831274851944145    0.755987641211308  0.0000
  O3     O3        0.783767837221372    0.653913715386269    0.800316318470802  0.0000
  O1     O1        0.153716317853509    0.690290324493360    0.234928968505222  0.0000
  O1     O1        0.147962335814468    0.357459478328042    0.197349912267222  0.0000
  O3     O3        0.806211096237416    0.336048441242824    0.768244155829437  0.0000
  O1     O1        0.294858305363750    0.324455365983717    0.763945727620188  0.0000
  O1     O1        0.645402805055547    0.367670625543250    0.165855773947052  0.0000
  O1     O1        0.663031534288171    0.687838462237238    0.241684694650735  0.0000
  O1     O1        0.306173828567545    0.656964533366450    0.817792333470391  0.0000
  O1     O1        0.786931820495941    0.835421117876770    0.776730995495710  0.0000
  O1     O1        0.113328726739171    0.863278537103575    0.163205971392531  0.0000
  O1     O1        0.153685472958291    0.179383543817651    0.216179524149196  0.0000
  O2     O2        0.816813682362934    0.168995395770728    0.802310123017572  0.0000
  O1     O1        0.298298076606652    0.261698691241109    0.050548482804596  0.0000
  O3     O3        0.802435057032087    0.265605277459285    0.030107014451343  0.0000
  O1     O1        0.796782470310803    0.759726808593832    0.053440373246124  0.0000
  O1     O1        0.288536175906344    0.770726564094243    0.045979890131387  0.0000
  O1     O1        0.414059988633817    0.421767640923790    0.240704201713224  0.0000
  O1     O1        0.540161184309915    0.389373859519358    0.731219112524882  0.0000
  O3     O3        0.540037873152614    0.591288096964419    0.750028014027597  0.0000
  O1     O1        0.416420159498553    0.625798707498143    0.270703299815838  0.0000
  O1     O1        0.894315837336504    0.929770151078098    0.248374783872636  0.0000
  O1     O1        0.028794550841555    0.891759340633906    0.731283281531809  0.0000
  O3     O3        0.029115330354676    0.093369689526703    0.742946468861885  0.0000
  O1     O1        0.912468864547572    0.125886089566278    0.272995106701086  0.0000
  O1     O1        0.323357835176250    0.372631302521942    0.481667764221045  0.0000
  O1     O1        0.641126947626017    0.371944838953217    0.476864360441239  0.0000
  O3     O3        0.630114832468373    0.643343958861923    0.525886971291573  0.0000
  O1     O1        0.312906446433704    0.644449358701251    0.521398400449112  0.0000
  O1     O1        0.796693195277214    0.884988315604129    0.491026364601706  0.0000
  O1     O1        0.116298456947254    0.866388538441086    0.472313729774388  0.0000
  O1     O1        0.142502750782235    0.150042802741935    0.513047716076051  0.0000
  O3     O3        0.818785920959247    0.140947484933507    0.527242126728816  0.0000
  O1     O1        0.213231774933956    0.519205925085167    0.315502758015284  0.0000
  O3     O3        0.728615958414434    0.504493135434820    0.674289747508687  0.0000
  O1     O1        0.692226449679553    0.027388981982189    0.309144218674673  0.0000
  O1     O1        0.225214528641832    0.997385585009798    0.664891915453545  0.0000
  O1     O1        0.308312925042795    0.495674151743082    0.691148694692852  0.0000
  O1     O1        0.645840687040418    0.519337168423061    0.314207193205433  0.0000
  O3     O3        0.809004859036661    0.010052448192332    0.704523637419027  0.0000
  O1     O1        0.136737902629587    0.015565733918037    0.318932345929940  0.0000
