data_c00145.vasp
_audit_creation_method             Generated by GULP
_audit_author_name                 Salvador R. G. Balestra
_symmetry_space_group_name_H-M     'P 1             '
_symmetry_Int_Tables_number        1

loop_
_symmetry_equiv_pos_site_id
_symmetry_equiv_pos_as_xyz
_cell_length_a                       10.2374
_cell_length_b                       15.8545
_cell_length_c                        9.2973
_cell_angle_alpha                   89.2644
_cell_angle_beta                   106.0468
_cell_angle_gamma                   89.4937

loop_
_atom_site_label
_atom_site_type_symbol
_atom_site_fract_x
_atom_site_fract_y
_atom_site_fract_z
_atom_site_charge
  Ge     Ge        0.351599999999962    0.244500000000016    0.893900000000031  0.0000
  Ge     Ge        0.660156069178647    0.249781933503247    0.105522426889486  0.0000
  Ge     Ge        0.639984934150530    0.764623892669917    0.104894039581206  0.0000
  Ge     Ge        0.339608941724882    0.739631143981737    0.889711970439783  0.0000
  Ge     Ge        0.844018432041483    0.746092987766711    0.898564756187110  0.0000
  Ge     Ge        0.149224318922507    0.747724403730721    0.108954679574785  0.0000
  Ge     Ge        0.141702364916297    0.263524228254006    0.095304086201326  0.0000
  Ge     Ge        0.320251591919579    0.407835158254491    0.302432477508046  0.0000
  Ge     Ge        0.722300342037266    0.389583860774626    0.666595341237568  0.0000
  Ge     Ge        0.732741506376748    0.589789680809744    0.691320330915465  0.0000
  Ge     Ge        0.817202794684950    0.910010596110210    0.310495234387633  0.0000
  Ge     Ge        0.219918264497997    0.891389840524918    0.663498566206327  0.0000
  Ge     Ge        0.235215276578921    0.091444890862831    0.686063461093420  0.0000
  Ge     Ge        0.404871579613712    0.390138612208242    0.660546538736546  0.0000
  Ge     Ge        0.634038668471966    0.407158240667023    0.299748624688538  0.0000
  Ge     Ge        0.637552864587479    0.609769555423413    0.327357114140815  0.0000
  Ge     Ge        0.412958849586214    0.590805740945423    0.683459612025312  0.0000
  Ge     Ge        0.906505975000973    0.894250814475419    0.670844418552682  0.0000
  Ge     Ge        0.126864256083190    0.908361957242168    0.297639079872091  0.0000
  Ge     Ge        0.136429212975689    0.110823140852709    0.324438799966009  0.0000
  Ge     Ge        0.915929054943593    0.095537831687918    0.686511882722283  0.0000
  Si     Si        0.845067820790725    0.241471161533511    0.888773393341029  0.0000
  Si     Si        0.329058569982316    0.607581795291542    0.333328017296762  0.0000
  Si     Si        0.827980873004192    0.109599644783632    0.336144343193663  0.0000
  O1     O1        0.484993619161302    0.248680439103970    0.050288515433948  0.0000
  O1     O1        0.465857831960268    0.758687361726059    0.049455302267588  0.0000
  O1     O1        0.974021010641006    0.745979753698439    0.059698099060606  0.0000
  O3     O3        0.965634295427932    0.259625139157357    0.036515473358814  0.0000
  O1     O1        0.355594032063594    0.150713621150594    0.803913379474416  0.0000
  O3     O3        0.710635305112835    0.168265827443332    0.233431355717745  0.0000
  O1     O1        0.684662262325204    0.858782949761077    0.192907690400482  0.0000
  O1     O1        0.335448670382458    0.817917189214277    0.759123703114809  0.0000
  O1     O1        0.848782135907409    0.653082908852504    0.806148789272396  0.0000
  O3     O3        0.209468465544776    0.666412546406900    0.235368454910996  0.0000
  O1     O1        0.187926031969230    0.358000596568607    0.181627214439684  0.0000
  O3     O3        0.837358736213896    0.314891219468146    0.765714668578799  0.0000
  O1     O1        0.337581733647239    0.326134579212112    0.768187522945107  0.0000
  O1     O1        0.705188920101051    0.344459000807316    0.191649754364355  0.0000
  O1     O1        0.701187012434958    0.681631971812340    0.228139723522843  0.0000
  O1     O1        0.351897594026165    0.644828378240547    0.808831477357782  0.0000
  O1     O1        0.839841837911788    0.830141102095864    0.779671276591641  0.0000
  O1     O1        0.196097315336547    0.843514834426345    0.191646619469553  0.0000
  O1     O1        0.198031015282798    0.181510888626192    0.221374945324526  0.0000
  O3     O3        0.861067747803913    0.152694297240091    0.815619950143066  0.0000
  O1     O1        0.202093630343872    0.250498638277778    0.944565028392493  0.0000
  O3     O3        0.708413304077292    0.239755555384356    0.942980464410803  0.0000
  O1     O1        0.694064637127801    0.753674231876980    0.948145676743939  0.0000
  O1     O1        0.192600117106527    0.738039947521411    0.945671715494598  0.0000
  O1     O1        0.459208921766191    0.404652211977081    0.233607711459932  0.0000
  O1     O1        0.579326753385027    0.388916255536688    0.728290206206450  0.0000
  O1     O1        0.586741892116715    0.586667253326948    0.748388371034071  0.0000
  O3     O3        0.460394354763134    0.612529688902071    0.270370260387248  0.0000
  O1     O1        0.951761565712569    0.907257005989967    0.234550163740193  0.0000
  O1     O1        0.081058504356489    0.890649975423970    0.733900102689929  0.0000
  O1     O1        0.089363731250886    0.088971361628366    0.743970037501251  0.0000
  O3     O3        0.959832432786953    0.113552656667160    0.274383515858709  0.0000
  O1     O1        0.358882863688782    0.360338366130912    0.476496921273114  0.0000
  O1     O1        0.677336460844142    0.367581844778816    0.480022807994741  0.0000
  O1     O1        0.693809127005404    0.631893642973190    0.512977107374346  0.0000
  O3     O3        0.370068751494147    0.636648810922791    0.505240029705902  0.0000
  O1     O1        0.857044747673891    0.864746879026944    0.486314414295500  0.0000
  O1     O1        0.166130647718177    0.868708532567189    0.477502712357214  0.0000
  O1     O1        0.197255441598407    0.135014039154106    0.508935823462006  0.0000
  O3     O3        0.866910893014643    0.139971495363432    0.507620866007750  0.0000
  O3     O3        0.277862245084489    0.511758251347809    0.325733708400445  0.0000
  O1     O1        0.792836449744203    0.488247550275337    0.690851434865375  0.0000
  O3     O3        0.775472985672482    0.014382293480372    0.332636804581054  0.0000
  O1     O1        0.291581690533040    0.989675728400538    0.681827988349482  0.0000
  O1     O1        0.348433471162220    0.491442921262385    0.672579400434208  0.0000
  O1     O1        0.688092153775749    0.508963829410234    0.297913102176980  0.0000
  O1     O1        0.852208418254416    0.996272514407854    0.684884117188614  0.0000
  O1     O1        0.184431252813029    0.009377147577310    0.295041437518200  0.0000
