data_c00177.vasp
_audit_creation_method             Generated by GULP
_audit_author_name                 Salvador R. G. Balestra
_symmetry_space_group_name_H-M     'P 1             '
_symmetry_Int_Tables_number        1

loop_
_symmetry_equiv_pos_site_id
_symmetry_equiv_pos_as_xyz
_cell_length_a                       10.2467
_cell_length_b                       15.8379
_cell_length_c                        9.2725
_cell_angle_alpha                   89.3199
_cell_angle_beta                   105.3010
_cell_angle_gamma                   89.7620

loop_
_atom_site_label
_atom_site_type_symbol
_atom_site_fract_x
_atom_site_fract_y
_atom_site_fract_z
_atom_site_charge
  Ge     Ge        0.351599999999962    0.244500000000016    0.893900000000031  0.0000
  Ge     Ge        0.654547474954158    0.267255124579707    0.099575045501075  0.0000
  Ge     Ge        0.658203572249609    0.762036180244484    0.109497949340781  0.0000
  Ge     Ge        0.356498068602860    0.757751880829104    0.893992363187603  0.0000
  Ge     Ge        0.856200062329367    0.746618687969890    0.896507873312082  0.0000
  Ge     Ge        0.155888118580946    0.765326090506134    0.105719938001405  0.0000
  Ge     Ge        0.153351046182283    0.262311712348262    0.113050848685720  0.0000
  Ge     Ge        0.677001107200474    0.395140988792345    0.667612146147513  0.0000
  Ge     Ge        0.679949956627151    0.598733081870819    0.690072376991059  0.0000
  Ge     Ge        0.275862794187781    0.612885208266880    0.330448845593816  0.0000
  Ge     Ge        0.766156779010166    0.918828700415023    0.313118712514727  0.0000
  Ge     Ge        0.176458821295759    0.898638933176148    0.661656560365944  0.0000
  Ge     Ge        0.183010650296491    0.100818331733469    0.677156238076953  0.0000
  Ge     Ge        0.775229786511570    0.119621882874028    0.339128928931418  0.0000
  Ge     Ge        0.361134988625166    0.398027866508702    0.674468256835358  0.0000
  Ge     Ge        0.582725588588951    0.411522470938004    0.312861918490803  0.0000
  Ge     Ge        0.590852300358652    0.615391129005875    0.333287896846152  0.0000
  Ge     Ge        0.364538361546102    0.598305479439939    0.696128370634874  0.0000
  Ge     Ge        0.866070576531164    0.902970426804238    0.680747263119516  0.0000
  Ge     Ge        0.077163754734858    0.916826248533427    0.304094288081269  0.0000
  Ge     Ge        0.871735917932263    0.105012134843634    0.702531770785779  0.0000
  Si     Si        0.858807246228757    0.260577261541664    0.899535768777716  0.0000
  Si     Si        0.273979803337507    0.414575214320442    0.316736082812948  0.0000
  Si     Si        0.084073412899914    0.115776180096721    0.328491172309473  0.0000
  O1     O1        0.525328777954788    0.246761656094875    0.947107442949168  0.0000
  O1     O1        0.530915988740408    0.759287432388935    0.948060977914478  0.0000
  O1     O1        0.030230761720563    0.747802170970429    0.946681164109310  0.0000
  O3     O3        0.021220729918894    0.268091049283357    0.953494388576871  0.0000
  O1     O1        0.310568183915719    0.153675446138802    0.795353167384165  0.0000
  O1     O1        0.664015076800316    0.191392408514593    0.235921702247705  0.0000
  O1     O1        0.648294136862698    0.852527185825632    0.207839008223040  0.0000
  O1     O1        0.304436296170537    0.835975877321693    0.762387914320591  0.0000
  O1     O1        0.805247469117544    0.652803204070278    0.811085408812957  0.0000
  O1     O1        0.158861741518802    0.683786653178776    0.231699398404090  0.0000
  O3     O3        0.162688708519795    0.353939578082006    0.215192162097979  0.0000
  O3     O3        0.803998006590099    0.332646830490113    0.775946293416506  0.0000
  O1     O1        0.291578171173661    0.327935965984778    0.772790275853978  0.0000
  O1     O1        0.635324611189425    0.363234894904600    0.174732906665355  0.0000
  O1     O1        0.663691024958387    0.675585496509952    0.223801802764178  0.0000
  O1     O1        0.304007013930926    0.662677981895969    0.810223531059144  0.0000
  O1     O1        0.797238828475771    0.830455335998275    0.776001492970634  0.0000
  O1     O1        0.141510575009824    0.862276929966334    0.180894438448949  0.0000
  O3     O3        0.144074913014684    0.175067460958485    0.221875493924649  0.0000
  O3     O3        0.818303122068259    0.169544854089400    0.825078561431021  0.0000
  O1     O1        0.296665246358191    0.249796623788587    0.052569621773347  0.0000
  O3     O3        0.803511755150745    0.270390249407940    0.044577510033773  0.0000
  O1     O1        0.807565857139657    0.758805529665561    0.057798923583654  0.0000
  O1     O1        0.304708136685876    0.769383256503175    0.052794581125794  0.0000
  O3     O3        0.407145944475997    0.416108229017442    0.255902161925588  0.0000
  O1     O1        0.535307565656094    0.391542198544365    0.733411674518888  0.0000
  O1     O1        0.538445183938499    0.594952500165865    0.755692421986227  0.0000
  O1     O1        0.417601000924320    0.621125612387113    0.265642408730549  0.0000
  O1     O1        0.904586781424359    0.918556406947046    0.240924104879197  0.0000
  O1     O1        0.040554956945126    0.896640625317911    0.737592101263199  0.0000
  O1     O1        0.045018803000364    0.101400790599389    0.749328120776747  0.0000
  O3     O3        0.921384201324264    0.118061478422022    0.278228644468588  0.0000
  O3     O3        0.317106844922440    0.377773471486190    0.485068222166630  0.0000
  O1     O1        0.637755797127304    0.362575093225294    0.484663271026853  0.0000
  O1     O1        0.637819732773719    0.646876239481400    0.516319575397691  0.0000
  O1     O1        0.317427558589822    0.637466383063046    0.515932525644382  0.0000
  O1     O1        0.818188022871342    0.881408713345040    0.493829279325784  0.0000
  O1     O1        0.126467714012792    0.869086986167454    0.477531397891666  0.0000
  O3     O3        0.134635071935080    0.146164298681610    0.499162040911936  0.0000
  O1     O1        0.811769827123760    0.144749607461704    0.523999721662078  0.0000
  O3     O3        0.216630553539841    0.509470303879056    0.313779331220425  0.0000
  O1     O1        0.733351539807368    0.497143623511199    0.674239516732937  0.0000
  O1     O1        0.706764120429500    0.020031611190623    0.314757863693621  0.0000
  O1     O1        0.236459188213567    0.999848167594803    0.665407633500280  0.0000
  O1     O1        0.306164497124220    0.497486229376302    0.701607475726793  0.0000
  O1     O1        0.642617921656528    0.512389791259468    0.329817957941811  0.0000
  O1     O1        0.814680340526621    0.003751711149944    0.709865144304158  0.0000
  O3     O3        0.134735229314601    0.020211291191862    0.318678566968437  0.0000
