data_c00147.vasp
_audit_creation_method             Generated by GULP
_audit_author_name                 Salvador R. G. Balestra
_symmetry_space_group_name_H-M     'P 1             '
_symmetry_Int_Tables_number        1

loop_
_symmetry_equiv_pos_site_id
_symmetry_equiv_pos_as_xyz
_cell_length_a                       10.2537
_cell_length_b                       15.8261
_cell_length_c                        9.2955
_cell_angle_alpha                   90.5097
_cell_angle_beta                   105.7155
_cell_angle_gamma                   89.7911

loop_
_atom_site_label
_atom_site_type_symbol
_atom_site_fract_x
_atom_site_fract_y
_atom_site_fract_z
_atom_site_charge
  Ge     Ge        0.351599999999962    0.244500000000016    0.893900000000031  0.0000
  Ge     Ge        0.655695118348651    0.223910301109565    0.104464771286797  0.0000
  Ge     Ge        0.652269362181959    0.737405407808588    0.104738559501653  0.0000
  Ge     Ge        0.345938024895072    0.744499166103913    0.887659847686267  0.0000
  Ge     Ge        0.861981737976553    0.741373428696073    0.903417063367394  0.0000
  Ge     Ge        0.159957196828273    0.722935347675255    0.112415315364016  0.0000
  Ge     Ge        0.146966804422027    0.239696186215248    0.101989678809454  0.0000
  Ge     Ge        0.330157154186047    0.379602509114934    0.330181522132551  0.0000
  Ge     Ge        0.733803012546637    0.391418600981682    0.690736579613184  0.0000
  Ge     Ge        0.734813263822912    0.593415782546993    0.670046286826504  0.0000
  Ge     Ge        0.832885124852413    0.874725932815628    0.344379345073126  0.0000
  Ge     Ge        0.231772956460268    0.094276221894340    0.669614879971776  0.0000
  Ge     Ge        0.826360584333636    0.079206028411437    0.320488356774683  0.0000
  Ge     Ge        0.417028915425690    0.395078672859259    0.687245249701660  0.0000
  Ge     Ge        0.643728083086584    0.375419057272241    0.325452917617812  0.0000
  Ge     Ge        0.644068076350373    0.578132102768503    0.307251547480273  0.0000
  Ge     Ge        0.415856610183076    0.596882526549272    0.663548005107864  0.0000
  Ge     Ge        0.931355682619325    0.893187454036887    0.698527307847066  0.0000
  Ge     Ge        0.146131348849476    0.878209971660155    0.329312927787496  0.0000
  Ge     Ge        0.138680540346678    0.080158101314134    0.305358900016614  0.0000
  Ge     Ge        0.918593973171276    0.095548061765004    0.677803112471479  0.0000
  Si     Si        0.848426886815967    0.238657232163496    0.895555118852073  0.0000
  Si     Si        0.336271169481874    0.579465431692748    0.314772366207329  0.0000
  Si     Si        0.239011935091079    0.898300612901920    0.684648071254752  0.0000
  O1     O1        0.482184901717863    0.228838974305445    0.049723287739418  0.0000
  O1     O1        0.478094601156036    0.742340067554793    0.044904246255891  0.0000
  O1     O1        0.986054894740550    0.718347596387927    0.062963965561430  0.0000
  O3     O3        0.970719322630518    0.239314714430781    0.045409792374904  0.0000
  O1     O1        0.350238251065109    0.163451718704717    0.768509946537266  0.0000
  O1     O1        0.698212850957862    0.130480052101519    0.195639433065581  0.0000
  O1     O1        0.704920119265800    0.814144667691958    0.238479316651151  0.0000
  O3     O3        0.347811151466753    0.838564476085734    0.792772419365418  0.0000
  O1     O1        0.851401732575147    0.663564694744896    0.771095980121486  0.0000
  O3     O3        0.219042235621701    0.628974867173817    0.197833066474829  0.0000
  O1     O1        0.197054584307629    0.323247289325255    0.223126053536510  0.0000
  O3     O3        0.850390719794587    0.324025815613388    0.802885714327567  0.0000
  O1     O1        0.357300049661981    0.340389761694655    0.812824607372405  0.0000
  O1     O1        0.715003276819890    0.306103388744338    0.227080596274230  0.0000
  O1     O1        0.697954702063655    0.640033830896155    0.185783545929922  0.0000
  O1     O1        0.343644467116287    0.663237370409830    0.764607708973035  0.0000
  O1     O1        0.890862249297520    0.838358114811838    0.836977493087536  0.0000
  O1     O1        0.215305162947018    0.806273401555714    0.233640259332187  0.0000
  O1     O1        0.198942865805464    0.146307755809463    0.194008760230964  0.0000
  O3     O3        0.850864256002559    0.158038483445603    0.791435979492161  0.0000
  O1     O1        0.203582277386626    0.246344745164341    0.947213179718932  0.0000
  O3     O3        0.709408587243148    0.233833251567344    0.944527831834672  0.0000
  O1     O1        0.711621473398538    0.748978941894818    0.951782350171996  0.0000
  O1     O1        0.201937426861464    0.736559003335616    0.947812086748213  0.0000
  O1     O1        0.469118076005208    0.368564946354702    0.262509790271207  0.0000
  O1     O1        0.590693838924440    0.399469256402962    0.750959165007498  0.0000
  O1     O1        0.589508454724935    0.599848146263732    0.729045140382742  0.0000
  O3     O3        0.468166060887001    0.575085134341504    0.253312571161377  0.0000
  O1     O1        0.972032247749023    0.869392308256239    0.274601165990169  0.0000
  O3     O3        0.105396555033719    0.905532021314945    0.743035933801867  0.0000
  O1     O1        0.092179276241603    0.100635390525135    0.737816984414839  0.0000
  O1     O1        0.964754477138699    0.077453304117141    0.250380076274853  0.0000
  O1     O1        0.369599753763673    0.348050221700207    0.513418701795606  0.0000
  O1     O1        0.689553148497074    0.351577470561058    0.511854402584877  0.0000
  O1     O1        0.699036630166056    0.618972419800010    0.484560181109456  0.0000
  O3     O3        0.374491820799357    0.625157077103919    0.476321776614712  0.0000
  O1     O1        0.874333746245401    0.843383207834104    0.528372670868868  0.0000
  O3     O3        0.196626784264121    0.858259857553370    0.518807685456767  0.0000
  O1     O1        0.186319619044905    0.119824909757039    0.484558459136677  0.0000
  O1     O1        0.866348867025494    0.126785852357662    0.494568348573472  0.0000
  O3     O3        0.286128213660422    0.485334210855414    0.333193387193145  0.0000
  O1     O1        0.797586029805170    0.491667508596945    0.691755253049720  0.0000
  O1     O1        0.778979770216362    0.977582873667479    0.342328622112886  0.0000
  O3     O3        0.297213612335627    0.992073578835968    0.681700601790930  0.0000
  O1     O1        0.358095575007744    0.496946296790544    0.679231794637964  0.0000
  O1     O1        0.698332922663218    0.475984188578469    0.303671180771147  0.0000
  O1     O1        0.866091915855008    0.993623722105722    0.690491098789371  0.0000
  O1     O1        0.195359553656866    0.978403964676818    0.297387887984195  0.0000
