data_c00156.vasp
_audit_creation_method             Generated by GULP
_audit_author_name                 Salvador R. G. Balestra
_symmetry_space_group_name_H-M     'P 1             '
_symmetry_Int_Tables_number        1

loop_
_symmetry_equiv_pos_site_id
_symmetry_equiv_pos_as_xyz
_cell_length_a                       10.2357
_cell_length_b                       15.8526
_cell_length_c                        9.3199
_cell_angle_alpha                   89.8291
_cell_angle_beta                   105.4332
_cell_angle_gamma                   89.9515

loop_
_atom_site_label
_atom_site_type_symbol
_atom_site_fract_x
_atom_site_fract_y
_atom_site_fract_z
_atom_site_charge
  Ge     Ge        0.351599999999962    0.244500000000016    0.893900000000031  0.0000
  Ge     Ge        0.654504884054045    0.255680133016123    0.110182583393601  0.0000
  Ge     Ge        0.649323209769002    0.749336981910796    0.119819909027562  0.0000
  Ge     Ge        0.346817405827736    0.749642793222779    0.902088080558627  0.0000
  Ge     Ge        0.840332576752282    0.740007038960400    0.899160021936671  0.0000
  Ge     Ge        0.140854134392461    0.749773735501919    0.108050318730447  0.0000
  Ge     Ge        0.146119896456490    0.249036612975718    0.106495074296018  0.0000
  Ge     Ge        0.270137171481852    0.398833919559913    0.328575876625815  0.0000
  Ge     Ge        0.669037062140845    0.395785456550860    0.684914529346710  0.0000
  Ge     Ge        0.265783332812455    0.600895083053685    0.334308408425856  0.0000
  Ge     Ge        0.757612675563785    0.904897122132788    0.330640070755652  0.0000
  Ge     Ge        0.169530521574375    0.893601040984489    0.676375027576861  0.0000
  Ge     Ge        0.176947801074886    0.098590769571457    0.679825022628207  0.0000
  Ge     Ge        0.765651719777571    0.105091153673612    0.336115961690050  0.0000
  Ge     Ge        0.587866351083705    0.399365700056517    0.329481327250255  0.0000
  Ge     Ge        0.584220397252813    0.602515824869037    0.341973153488603  0.0000
  Ge     Ge        0.359172339882082    0.593366797562134    0.695878353473700  0.0000
  Ge     Ge        0.857879537117038    0.899524700085754    0.695535130612840  0.0000
  Ge     Ge        0.072030439297751    0.899255140782773    0.320735657228971  0.0000
  Ge     Ge        0.080276757626385    0.101533026880582    0.324195769013209  0.0000
  Ge     Ge        0.865870045549658    0.102891582221512    0.700433036778480  0.0000
  Si     Si        0.849645185132894    0.256674350743967    0.902965687609873  0.0000
  Si     Si        0.666163861890405    0.595874314328120    0.691452661879821  0.0000
  Si     Si        0.360099936077071    0.395325025081168    0.684612899864133  0.0000
  O1     O1        0.525079740997328    0.245160202486544    0.953436904921081  0.0000
  O1     O1        0.521155787056751    0.749852167171412    0.959706231784189  0.0000
  O1     O1        0.014771737124259    0.734810616453872    0.948170644924251  0.0000
  O3     O3        0.012696211462953    0.259602988240632    0.948620556865032  0.0000
  O1     O1        0.306005474567147    0.154121051364276    0.794101515127983  0.0000
  O1     O1        0.651312648593924    0.174713108419509    0.232344989540496  0.0000
  O1     O1        0.641158443859330    0.838369934983642    0.222689027605660  0.0000
  O1     O1        0.297063010852487    0.833013028849943    0.783091510700761  0.0000
  O3     O3        0.783657102410379    0.650388604814046    0.797294171318876  0.0000
  O1     O1        0.146685566554835    0.668177684683635    0.231482828331387  0.0000
  O1     O1        0.151365534954349    0.331087263171985    0.228319852137282  0.0000
  O3     O3        0.793969811604832    0.339575688248979    0.806906800728967  0.0000
  O3     O3        0.295585629073252    0.331769830971040    0.779929571041917  0.0000
  O1     O1        0.654183211982230    0.347850766345833    0.204616797164325  0.0000
  O1     O1        0.656013304253843    0.664027857276950    0.234763577406096  0.0000
  O1     O1        0.296181902455004    0.655737101059459    0.809674242346230  0.0000
  O1     O1        0.789689713636025    0.830593678497362    0.797168272289021  0.0000
  O1     O1        0.127302655771169    0.843845435804439    0.192066952600376  0.0000
  O1     O1        0.142895089980275    0.156249418220049    0.199084139417534  0.0000
  O3     O3        0.801060873853165    0.172653422560406    0.806433069232388  0.0000
  O1     O1        0.291524757880112    0.249969007558551    0.047808817575953  0.0000
  O3     O3        0.803601074377437    0.253615515601796    0.054206805730902  0.0000
  O1     O1        0.796416086107816    0.745098211400749    0.063343892526110  0.0000
  O1     O1        0.291203366396098    0.754470163065287    0.058363281778649  0.0000
  O1     O1        0.413978056912181    0.396207175813664    0.266914677256353  0.0000
  O3     O3        0.523406843690441    0.392119476850096    0.745049033310310  0.0000
  O3     O3        0.534788682487631    0.596263052207333    0.755184496868127  0.0000
  O1     O1        0.410930863949095    0.604957320435377    0.274257023832242  0.0000
  O1     O1        0.898547740605470    0.905365905714493    0.263633293533644  0.0000
  O1     O1        0.032437377450538    0.893238039780444    0.750300392994695  0.0000
  O1     O1        0.039665263038913    0.101133621338779    0.753888251227374  0.0000
  O1     O1        0.906360133588567    0.102931686687364    0.268806711102914  0.0000
  O3     O3        0.320573183465805    0.367593347711832    0.513303610980742  0.0000
  O1     O1        0.641010862604351    0.358148219375012    0.507468549249876  0.0000
  O3     O3        0.624670005414544    0.635464144802097    0.526049163561334  0.0000
  O1     O1        0.304166673614540    0.630428001115016    0.517638623198979  0.0000
  O1     O1        0.805347479367325    0.870971174136801    0.511945425581086  0.0000
  O1     O1        0.121839090659890    0.856207937595868    0.496643195415228  0.0000
  O1     O1        0.133383574193982    0.140257655091196    0.502823514653653  0.0000
  O1     O1        0.814025006481643    0.135687150868878    0.518901208736167  0.0000
  O1     O1        0.206129417636911    0.499064886788695    0.316237491343690  0.0000
  O3     O3        0.717419530681815    0.500431895617815    0.683790223116789  0.0000
  O1     O1        0.696137413473544    0.005910605699142    0.326237771395258  0.0000
  O1     O1        0.225264273747429    0.995483943741930    0.671480531265006  0.0000
  O3     O3        0.307141044965054    0.489617343516510    0.699307906720764  0.0000
  O1     O1        0.641631403381401    0.501735639258021    0.336321361787212  0.0000
  O1     O1        0.809316029493381    0.001947136158228    0.716399373018068  0.0000
  O1     O1        0.136565086985264    0.999503334864194    0.328308826367838  0.0000
