data_c00153.vasp
_audit_creation_method             Generated by GULP
_audit_author_name                 Salvador R. G. Balestra
_symmetry_space_group_name_H-M     'P 1             '
_symmetry_Int_Tables_number        1

loop_
_symmetry_equiv_pos_site_id
_symmetry_equiv_pos_as_xyz
_cell_length_a                       10.2018
_cell_length_b                       15.7953
_cell_length_c                        9.2512
_cell_angle_alpha                   89.6847
_cell_angle_beta                   105.1845
_cell_angle_gamma                   89.3717

loop_
_atom_site_label
_atom_site_type_symbol
_atom_site_fract_x
_atom_site_fract_y
_atom_site_fract_z
_atom_site_charge
  Ge     Ge        0.351599999999962    0.244500000000016    0.893900000000031  0.0000
  Ge     Ge        0.657724605739556    0.252502200771630    0.109952448262268  0.0000
  Ge     Ge        0.644465552824021    0.764901062383054    0.114684619496817  0.0000
  Ge     Ge        0.356545334355059    0.736382202380605    0.892387467417637  0.0000
  Ge     Ge        0.841292480282879    0.739342477323733    0.897418140637252  0.0000
  Ge     Ge        0.152100366981100    0.747901962406400    0.100400290228924  0.0000
  Ge     Ge        0.147701623631587    0.264096551446374    0.103441917057300  0.0000
  Ge     Ge        0.325692819073272    0.410743845239806    0.311063871051105  0.0000
  Ge     Ge        0.726844562513690    0.386705571568135    0.677134445401134  0.0000
  Ge     Ge        0.331462042779642    0.614195381173237    0.352835536403948  0.0000
  Ge     Ge        0.822911111046084    0.909722267835045    0.317337903106136  0.0000
  Ge     Ge        0.229998721292123    0.885355875343552    0.659415023657195  0.0000
  Ge     Ge        0.244085455584457    0.086047082683797    0.692793067836441  0.0000
  Ge     Ge        0.828910006322799    0.112916811177548    0.348754459902587  0.0000
  Ge     Ge        0.412413408347735    0.391646409154450    0.672218213599977  0.0000
  Ge     Ge        0.642703113760361    0.410122707257406    0.310088261736253  0.0000
  Ge     Ge        0.655301680941243    0.612157063735643    0.345319230240876  0.0000
  Ge     Ge        0.916857548039733    0.888462245208349    0.675188836857960  0.0000
  Ge     Ge        0.134042948966142    0.908981443450285    0.293794237863497  0.0000
  Ge     Ge        0.142375358179567    0.111251178354836    0.329710359426149  0.0000
  Ge     Ge        0.928128039552183    0.091249681146578    0.705653348889386  0.0000
  Si     Si        0.853931885164083    0.240746955603145    0.901567222823984  0.0000
  Si     Si        0.739804047865957    0.582334009362998    0.691359444593857  0.0000
  Si     Si        0.425933232820574    0.587942475229493    0.694623070486155  0.0000
  O1     O1        0.483009995362593    0.253286859125507    0.050029879641140  0.0000
  O1     O1        0.470278828255837    0.762216777816880    0.057518187814909  0.0000
  O1     O1        0.977526921398994    0.739724832457633    0.049721185270366  0.0000
  O3     O3        0.971327776208846    0.264184047765883    0.048254304097408  0.0000
  O1     O1        0.361798326648714    0.149782652612317    0.805130550653540  0.0000
  O1     O1        0.700921408049861    0.174792839551939    0.244139771634609  0.0000
  O1     O1        0.690254443661648    0.860005736962643    0.198516195468284  0.0000
  O1     O1        0.344497055452621    0.810728601665297    0.755049127441461  0.0000
  O3     O3        0.831443146908037    0.639036961208062    0.818096037502382  0.0000
  O1     O1        0.210763314342086    0.680469039394400    0.249227284020906  0.0000
  O1     O1        0.198533855197450    0.358615212630108    0.187754554648143  0.0000
  O3     O3        0.843134049105382    0.311871332003044    0.773269462434000  0.0000
  O1     O1        0.334159436415106    0.327912371654997    0.770928478170283  0.0000
  O1     O1        0.708243095983804    0.347410713085401    0.195197861619337  0.0000
  O1     O1        0.712753709233331    0.685288153333261    0.241201264068148  0.0000
  O3     O3        0.407334156375564    0.639424684726210    0.835594885257985  0.0000
  O1     O1        0.846045177970931    0.819180846556403    0.774016086776668  0.0000
  O1     O1        0.190360407647518    0.848866183163065    0.168338343379281  0.0000
  O1     O1        0.207248663525617    0.183883169366509    0.231585429579255  0.0000
  O3     O3        0.879733404285695    0.148814695798217    0.841391019022684  0.0000
  O1     O1        0.202252654877501    0.246609349359512    0.947444456754369  0.0000
  O3     O3        0.714967248734178    0.236474598945873    0.952921208332260  0.0000
  O1     O1        0.695440153885926    0.753802229460566    0.953426780481604  0.0000
  O1     O1        0.207171881016272    0.725854891773176    0.944926511199649  0.0000
  O1     O1        0.468385148557384    0.411910896587571    0.246189632751370  0.0000
  O1     O1        0.585031698011423    0.378286443905329    0.742326892486864  0.0000
  O2     O2        0.583796072050790    0.569845697627442    0.699243206517453  0.0000
  O1     O1        0.481407058912568    0.623730584292136    0.303212422651780  0.0000
  O1     O1        0.958957915551871    0.911976930130087    0.240693592761442  0.0000
  O1     O1        0.091579189650409    0.882307207928295    0.733096315312325  0.0000
  O1     O1        0.100976771746336    0.078923555176172    0.757100828297556  0.0000
  O1     O1        0.967538497464226    0.117743312459332    0.276846775936581  0.0000
  O1     O1        0.366238356596809    0.365089133945108    0.486637018719498  0.0000
  O1     O1        0.686049688068542    0.368118568344473    0.488936411496226  0.0000
  O3     O3        0.731227946025237    0.627870952627287    0.533420544069352  0.0000
  O3     O3        0.357291520232015    0.638420335146260    0.542008313154064  0.0000
  O1     O1        0.869688773347669    0.860974715874672    0.489738068408138  0.0000
  O1     O1        0.183323810473152    0.865215355095658    0.471570231881834  0.0000
  O1     O1        0.196944230120461    0.131263508904673    0.517144848900022  0.0000
  O1     O1        0.874584825106176    0.141177782831825    0.534813696919564  0.0000
  O1     O1        0.273334988005634    0.512947993059800    0.326112173728927  0.0000
  O3     O3        0.798426376295704    0.487160017762774    0.701813441741439  0.0000
  O1     O1        0.773381308794066    0.010794928437419    0.345014506484062  0.0000
  O1     O1        0.302117872648121    0.984320976405743    0.683821028915803  0.0000
  O3     O3        0.362187072130424    0.495615789950326    0.692277851841770  0.0000
  O1     O1        0.699459232759586    0.511321271294158    0.306434826987700  0.0000
  O1     O1        0.864167813363122    0.990384291880135    0.697931620207862  0.0000
  O1     O1        0.193307986107389    0.010145352013082    0.297782011895670  0.0000
