data_c00101.vasp
_audit_creation_method             Generated by GULP
_audit_author_name                 Salvador R. G. Balestra
_symmetry_space_group_name_H-M     'P 1             '
_symmetry_Int_Tables_number        1

loop_
_symmetry_equiv_pos_site_id
_symmetry_equiv_pos_as_xyz
_cell_length_a                       10.2465
_cell_length_b                       15.8516
_cell_length_c                        9.3001
_cell_angle_alpha                   90.5496
_cell_angle_beta                   105.2860
_cell_angle_gamma                   89.3279

loop_
_atom_site_label
_atom_site_type_symbol
_atom_site_fract_x
_atom_site_fract_y
_atom_site_fract_z
_atom_site_charge
  Ge     Ge        0.351599999999962    0.244500000000016    0.893900000000031  0.0000
  Ge     Ge        0.659048501411093    0.250067531267992    0.103468821802656  0.0000
  Ge     Ge        0.644831762795221    0.751399954833608    0.106220914290844  0.0000
  Ge     Ge        0.342287337915314    0.759595743050434    0.894677684516198  0.0000
  Ge     Ge        0.844405610190596    0.751787582625010    0.893272832293194  0.0000
  Ge     Ge        0.143513470375194    0.753838410083300    0.108759853128920  0.0000
  Ge     Ge        0.142810220532145    0.244316934474442    0.099502293278602  0.0000
  Ge     Ge        0.269671058390131    0.394565006952305    0.324108100721319  0.0000
  Ge     Ge        0.674684290322334    0.402425212331010    0.680579639670161  0.0000
  Ge     Ge        0.667927269282877    0.605931163552688    0.673125580463894  0.0000
  Ge     Ge        0.261782315667201    0.597732399926067    0.318665993168311  0.0000
  Ge     Ge        0.762850248394499    0.903964288297833    0.325745294578808  0.0000
  Ge     Ge        0.165976601490857    0.903065086628636    0.669666242773333  0.0000
  Ge     Ge        0.174581482012299    0.105842757852209    0.662504817664227  0.0000
  Ge     Ge        0.359394265987609    0.401404167195618    0.687793601891290  0.0000
  Ge     Ge        0.586839498851468    0.396361780676560    0.323567729875800  0.0000
  Ge     Ge        0.576013240096804    0.600832117191535    0.316251222737428  0.0000
  Ge     Ge        0.354520058599038    0.603361460535370    0.683296966876897  0.0000
  Ge     Ge        0.853935063303949    0.909814548643371    0.689561783524850  0.0000
  Ge     Ge        0.071137505470470    0.097861707816296    0.309018566423482  0.0000
  Ge     Ge        0.861234510147932    0.111036332693053    0.678169955946410  0.0000
  Si     Si        0.851389726070847    0.262456292319564    0.890701714876450  0.0000
  Si     Si        0.765537252688190    0.101618855764078    0.320391622711698  0.0000
  Si     Si        0.069893793368272    0.898211030175839    0.321223004455921  0.0000
  O1     O1        0.525508646722420    0.242555785217304    0.950341428004160  0.0000
  O1     O1        0.516489058228382    0.760799911879208    0.947472768897617  0.0000
  O1     O1        0.018835613118299    0.749806505507532    0.946205224066445  0.0000
  O3     O3        0.014184748339962    0.260518828257619    0.939090976523417  0.0000
  O1     O1        0.304090987479497    0.162115990450927    0.772072275595676  0.0000
  O3     O3        0.657589026176080    0.165337349618651    0.220574020792024  0.0000
  O1     O1        0.645134573650100    0.837731295720381    0.221123609282265  0.0000
  O1     O1        0.292289330580958    0.844023332388137    0.779368545193498  0.0000
  O1     O1        0.793941750050913    0.666670868300162    0.778566956819276  0.0000
  O1     O1        0.143540911009485    0.664985285695824    0.212871561285948  0.0000
  O1     O1        0.151154978012747    0.325917942996140    0.223779939666183  0.0000
  O3     O3        0.801960260751632    0.348873094999478    0.806074669557924  0.0000
  O1     O1        0.298101282527892    0.337269434919692    0.800299313770837  0.0000
  O1     O1        0.656873633348922    0.340390900468411    0.204676180696413  0.0000
  O1     O1        0.639741295466949    0.658958984056782    0.197884482157269  0.0000
  O1     O1        0.288128943830421    0.669291981414937    0.792511477111303  0.0000
  O1     O1        0.790825031632145    0.844258817919537    0.798828529077013  0.0000
  O3     O3        0.134282331486349    0.843169377938973    0.213111703300486  0.0000
  O1     O1        0.128290183424683    0.148554245416627    0.177908993865604  0.0000
  O3     O3        0.795795887269288    0.185162460772890    0.777336056880780  0.0000
  O1     O1        0.291660050174751    0.238934692963265    0.047885365883823  0.0000
  O3     O3        0.804443608540834    0.252961122305160    0.041337071457890  0.0000
  O1     O1        0.793296558626031    0.747601040792633    0.053152787880965  0.0000
  O1     O1        0.292023706269527    0.762003117045652    0.055925522773681  0.0000
  O1     O1        0.412958296153356    0.392110908097566    0.260600802609490  0.0000
  O1     O1        0.533540411113285    0.403045305326679    0.746387306663585  0.0000
  O1     O1        0.528765628263552    0.606291092071079    0.743530810425630  0.0000
  O1     O1        0.402822166391026    0.598260039115372    0.251290885528107  0.0000
  O3     O3        0.907328424264005    0.897404636824036    0.262268482829169  0.0000
  O1     O1        0.028184645920294    0.905468582792078    0.741634827154912  0.0000
  O1     O1        0.034587484427439    0.111573654032632    0.732063747245730  0.0000
  O3     O3        0.896558773948239    0.100998889508747    0.255776517747733  0.0000
  O1     O1        0.314460441583599    0.364767954933599    0.507354416681666  0.0000
  O1     O1        0.637481190750735    0.359833433006750    0.503879242507270  0.0000
  O1     O1        0.620106417662267    0.642682362787664    0.493228198558392  0.0000
  O1     O1        0.306709785914071    0.633196556539697    0.499828284195468  0.0000
  O1     O1        0.797964850455589    0.875390733536562    0.508162196232735  0.0000
  O3     O3        0.113553087160963    0.862853380346127    0.488961462910073  0.0000
  O1     O1        0.132511756454788    0.142317260272260    0.482022320289015  0.0000
  O3     O3        0.810665925462089    0.134205474304084    0.490340522733762  0.0000
  O1     O1        0.204866021144315    0.495854388392759    0.311880191445820  0.0000
  O1     O1        0.726512734719260    0.504006360162006    0.670834018152507  0.0000
  O3     O3        0.705754310298396    0.008052080611909    0.313532703265075  0.0000
  O1     O1        0.225872491743728    0.002674912158849    0.663429503648655  0.0000
  O1     O1        0.299339126247024    0.502365958862478    0.694652627817949  0.0000
  O1     O1        0.637054270215759    0.499252819156871    0.323816949741629  0.0000
  O1     O1        0.804430334674163    0.012728580891556    0.705610745924160  0.0000
  O3     O3        0.122761731021400    0.993368950706979    0.322077827112599  0.0000
