data_c00144.vasp
_audit_creation_method             Generated by GULP
_audit_author_name                 Salvador R. G. Balestra
_symmetry_space_group_name_H-M     'P 1             '
_symmetry_Int_Tables_number        1

loop_
_symmetry_equiv_pos_site_id
_symmetry_equiv_pos_as_xyz
_cell_length_a                       10.2381
_cell_length_b                       15.8646
_cell_length_c                        9.2915
_cell_angle_alpha                   90.3137
_cell_angle_beta                   105.5251
_cell_angle_gamma                   90.0539

loop_
_atom_site_label
_atom_site_type_symbol
_atom_site_fract_x
_atom_site_fract_y
_atom_site_fract_z
_atom_site_charge
  Ge     Ge        0.351599999999962    0.244500000000016    0.893900000000031  0.0000
  Ge     Ge        0.653419035580476    0.222696505052328    0.108839266370812  0.0000
  Ge     Ge        0.650783811227462    0.733302069828601    0.115857321472242  0.0000
  Ge     Ge        0.347858618760633    0.733585957855173    0.896721152661319  0.0000
  Ge     Ge        0.856907360975654    0.737261210532108    0.909566915586391  0.0000
  Ge     Ge        0.157226851896922    0.720265392406185    0.116949362463650  0.0000
  Ge     Ge        0.148976822442836    0.238567256335052    0.106577701722538  0.0000
  Ge     Ge        0.328226623730692    0.377838835931026    0.339262111284136  0.0000
  Ge     Ge        0.730235499610670    0.385162615301840    0.693086294691209  0.0000
  Ge     Ge        0.732441327514739    0.587783729895003    0.682104911784130  0.0000
  Ge     Ge        0.828830062023621    0.874579071658574    0.345976754712099  0.0000
  Ge     Ge        0.240328329477683    0.891647523572719    0.691860060990671  0.0000
  Ge     Ge        0.233426537359384    0.091915409838300    0.671578246789343  0.0000
  Ge     Ge        0.823222219625861    0.078572343752228    0.325918602425566  0.0000
  Ge     Ge        0.642544170719107    0.372873473687477    0.331112001014571  0.0000
  Ge     Ge        0.641204951683575    0.575658916954505    0.319448717110515  0.0000
  Ge     Ge        0.415503436389394    0.587751269932849    0.674361613693974  0.0000
  Ge     Ge        0.926848400565642    0.889476396582532    0.703443268761022  0.0000
  Ge     Ge        0.140064990035474    0.876574984836787    0.327119669797390  0.0000
  Ge     Ge        0.135618617422468    0.079113603591524    0.306981215014472  0.0000
  Ge     Ge        0.918864116435343    0.091649029076542    0.683159827574733  0.0000
  Si     Si        0.849803731546366    0.234849498001972    0.902235792940455  0.0000
  Si     Si        0.332079929028416    0.576347614814662    0.323492609113570  0.0000
  Si     Si        0.418875671236879    0.389953977351054    0.689691818694549  0.0000
  O1     O1        0.479910535437943    0.228989374346708    0.051279326352286  0.0000
  O1     O1        0.476234306661415    0.731736685420632    0.057216520189641  0.0000
  O1     O1        0.982950745142259    0.717595961273111    0.068611399234507  0.0000
  O3     O3        0.972551005043475    0.238920417837128    0.050640333631953  0.0000
  O1     O1        0.348357173355531    0.162983043762069    0.771298090514243  0.0000
  O1     O1        0.693683694268275    0.130826774024293    0.205406049476373  0.0000
  O1     O1        0.699614275584033    0.813661449231061    0.242635452385210  0.0000
  O1     O1        0.356497520590737    0.824875430361172    0.800126681267821  0.0000
  O1     O1        0.850364505873987    0.656827176674872    0.783131245298382  0.0000
  O3     O3        0.215862602836669    0.629085794086518    0.211964545334344  0.0000
  O1     O1        0.198210677970999    0.317697629275040    0.236809898364410  0.0000
  O3     O3        0.846754711224436    0.320125289511122    0.808134725293257  0.0000
  O3     O3        0.361710019556034    0.339154851707642    0.807214512932013  0.0000
  O1     O1        0.711973936917146    0.306384264019372    0.227063827150871  0.0000
  O1     O1        0.701124930373520    0.638532630457059    0.203531838403113  0.0000
  O1     O1        0.339723993906680    0.649073645087042    0.778166504062388  0.0000
  O1     O1        0.873918479509027    0.833295245281958    0.833339683837082  0.0000
  O1     O1        0.210604967847378    0.807182692659864    0.228694838764441  0.0000
  O1     O1        0.196904000380235    0.143228381504645    0.192452515081212  0.0000
  O3     O3        0.856693565607977    0.154128202553584    0.800884744988575  0.0000
  O1     O1        0.205365012421570    0.250268182296317    0.951540800327773  0.0000
  O3     O3        0.710468287522905    0.227736972142521    0.950483896629380  0.0000
  O1     O1        0.707251107676262    0.743067151938627    0.960505579774107  0.0000
  O1     O1        0.200318587973397    0.729296107849827    0.952203391636152  0.0000
  O1     O1        0.467794333604438    0.366176079795773    0.272585696619561  0.0000
  O3     O3        0.581766954444862    0.392795786749854    0.747586632732586  0.0000
  O1     O1        0.587836923655327    0.595816444329752    0.743134180226750  0.0000
  O3     O3        0.465042183503460    0.572892032519408    0.263090525360231  0.0000
  O1     O1        0.965277552257894    0.870393906451035    0.271004775301274  0.0000
  O1     O1        0.100343742152209    0.896639972049741    0.760057738195315  0.0000
  O1     O1        0.092804849301642    0.093293370044666    0.739834488890260  0.0000
  O1     O1        0.961341786026571    0.078083165567586    0.254343480859520  0.0000
  O3     O3        0.373243518449250    0.347808852061494    0.525673646821087  0.0000
  O1     O1        0.694976685320496    0.345159436354679    0.515869107916430  0.0000
  O1     O1        0.693349365303881    0.615130201388134    0.497416088408915  0.0000
  O3     O3        0.371341813395200    0.617822431374828    0.488306447701205  0.0000
  O1     O1        0.876344210274947    0.842936410744527    0.529505052006543  0.0000
  O1     O1        0.189750660140777    0.852365873696449    0.513029629946316  0.0000
  O1     O1        0.186282186179439    0.117889942041146    0.486545539762386  0.0000
  O1     O1        0.865554838451474    0.124451531372255    0.501092979041643  0.0000
  O3     O3        0.277724887151907    0.481972774579905    0.331331085488103  0.0000
  O1     O1        0.792421826602786    0.485929365978605    0.699655266527692  0.0000
  O1     O1        0.774300570562557    0.976932435373361    0.344805260960355  0.0000
  O1     O1        0.301993277490676    0.992071866731958    0.689191228241675  0.0000
  O3     O3        0.362900357354293    0.484624624497298    0.681513364342074  0.0000
  O1     O1        0.695907620318512    0.474159338019982    0.314441624778377  0.0000
  O1     O1        0.863465330108830    0.990313289475742    0.693928653264023  0.0000
  O1     O1        0.191502556091745    0.977532705742989    0.301743085105751  0.0000
