data_c00146.vasp
_audit_creation_method             Generated by GULP
_audit_author_name                 Salvador R. G. Balestra
_symmetry_space_group_name_H-M     'P 1             '
_symmetry_Int_Tables_number        1

loop_
_symmetry_equiv_pos_site_id
_symmetry_equiv_pos_as_xyz
_cell_length_a                       10.2329
_cell_length_b                       15.8335
_cell_length_c                        9.3350
_cell_angle_alpha                   89.8207
_cell_angle_beta                   105.8119
_cell_angle_gamma                   89.7208

loop_
_atom_site_label
_atom_site_type_symbol
_atom_site_fract_x
_atom_site_fract_y
_atom_site_fract_z
_atom_site_charge
  Ge     Ge        0.351599999999962    0.244500000000016    0.893900000000031  0.0000
  Ge     Ge        0.661907596359260    0.239318833274803    0.106821497365427  0.0000
  Ge     Ge        0.666938935767956    0.751726569009936    0.117940137193162  0.0000
  Ge     Ge        0.364727418344344    0.743718188733399    0.900520872715930  0.0000
  Ge     Ge        0.870346902559326    0.740878321796368    0.910532650717393  0.0000
  Ge     Ge        0.174217379666320    0.742456700837761    0.120177199911555  0.0000
  Ge     Ge        0.153026890235121    0.258682234936900    0.108701040211897  0.0000
  Ge     Ge        0.335776566536236    0.400898579453788    0.319128976764420  0.0000
  Ge     Ge        0.735946612910204    0.384132814430638    0.680809611936584  0.0000
  Ge     Ge        0.751783590532127    0.586408654674593    0.697684763668548  0.0000
  Ge     Ge        0.843136800653832    0.896488470089307    0.335306073169354  0.0000
  Ge     Ge        0.248413426256069    0.897017994286422    0.684763192395589  0.0000
  Ge     Ge        0.836270423041477    0.101559282290584    0.343701154548651  0.0000
  Ge     Ge        0.417762369911448    0.391259271701573    0.675073275296163  0.0000
  Ge     Ge        0.650166495272613    0.394353479588157    0.315961777747190  0.0000
  Ge     Ge        0.660895324456453    0.597235594374772    0.335287717761349  0.0000
  Ge     Ge        0.432077323225716    0.593708586915039    0.686289156750227  0.0000
  Ge     Ge        0.935203543485601    0.891186127344373    0.691809386165311  0.0000
  Ge     Ge        0.155227193919374    0.901411842078838    0.320228114971346  0.0000
  Ge     Ge        0.150258590922112    0.103960363518687    0.329487038920210  0.0000
  Ge     Ge        0.934824847321907    0.094504350646062    0.697026313991561  0.0000
  Si     Si        0.859953691731834    0.237415194508418    0.903497946732156  0.0000
  Si     Si        0.352311150526067    0.600881384881600    0.338139010999168  0.0000
  Si     Si        0.243960748058457    0.093394302387224    0.684458273590237  0.0000
  O1     O1        0.487559877912574    0.240644411821501    0.046925601893725  0.0000
  O1     O1        0.492436887531485    0.749352577323771    0.061702267499885  0.0000
  O1     O1        0.999425198256317    0.737325736654106    0.071380342735320  0.0000
  O3     O3        0.976735614004045    0.257435059745407    0.053193992934898  0.0000
  O3     O3        0.352791583611095    0.155421974635218    0.785947094589387  0.0000
  O1     O1        0.705368247450312    0.155891555874557    0.227267481530212  0.0000
  O1     O1        0.714183779510814    0.841921562660566    0.218593719366501  0.0000
  O1     O1        0.368982175418089    0.830420626562970    0.789733052145722  0.0000
  O1     O1        0.871024222462548    0.650640617898611    0.808157382385478  0.0000
  O3     O3        0.234565940149637    0.657590426326097    0.235520565462417  0.0000
  O1     O1        0.201994456709116    0.352342602072449    0.198254927711178  0.0000
  O3     O3        0.850614954343116    0.310778869225653    0.781558914221306  0.0000
  O1     O1        0.346687425520323    0.332771991332877    0.786985462241092  0.0000
  O1     O1        0.715415210768914    0.330654433910988    0.204498851956132  0.0000
  O1     O1        0.725065560956583    0.665094716670082    0.230548286149927  0.0000
  O1     O1        0.364651480386290    0.654037812923349    0.798796474225835  0.0000
  O1     O1        0.870931330384514    0.829826757019350    0.806027446856648  0.0000
  O1     O1        0.222808884387231    0.835434918775317    0.214131117801202  0.0000
  O1     O1        0.213435939953657    0.176633784870535    0.231259196635489  0.0000
  O3     O3        0.888742110076564    0.148740733024026    0.835374458362211  0.0000
  O1     O1        0.206589186386831    0.247594831383599    0.952348649401690  0.0000
  O3     O3        0.719727388065341    0.231865842684900    0.949790325718940  0.0000
  O1     O1        0.720271012834723    0.746353794005832    0.960568681123876  0.0000
  O1     O1        0.217558601034076    0.740273955840046    0.956531319781556  0.0000
  O1     O1        0.475372343298081    0.392831747101778    0.252047296206838  0.0000
  O1     O1        0.592155668100346    0.386272120313355    0.741286797408959  0.0000
  O1     O1        0.605514416698789    0.589054435692387    0.755016702381233  0.0000
  O3     O3        0.484113048112558    0.600378151550817    0.275789118509167  0.0000
  O1     O1        0.980354495207625    0.898122807546027    0.262709559288334  0.0000
  O1     O1        0.109575252852720    0.890183232877172    0.753471225135201  0.0000
  O3     O3        0.110287705450446    0.087755970688126    0.743484426881735  0.0000
  O1     O1        0.975857995050061    0.108325104450883    0.275587839803947  0.0000
  O1     O1        0.370456286665112    0.356782379049231    0.494005818292313  0.0000
  O1     O1        0.693690663306710    0.357435939770755    0.496434761649138  0.0000
  O1     O1        0.715625312512822    0.624501019948461    0.518375838904997  0.0000
  O3     O3        0.394832567385747    0.634982320140952    0.506757890623848  0.0000
  O1     O1        0.888047334519394    0.854168432423545    0.511920089612367  0.0000
  O1     O1        0.204055118882603    0.867377594322856    0.501806512677996  0.0000
  O3     O3        0.199961094258118    0.128608444081524    0.516713130154209  0.0000
  O1     O1        0.873557662243482    0.139080142156905    0.524156216540971  0.0000
  O3     O3        0.297846305156449    0.505940885762568    0.339614638752092  0.0000
  O1     O1        0.806496096045418    0.483367867173881    0.701438069138596  0.0000
  O1     O1        0.790959336185532    0.998208012885010    0.351919691396436  0.0000
  O3     O3        0.307145388621146    0.999945408411281    0.689504622421339  0.0000
  O1     O1        0.367096393049430    0.494201302492396    0.682458972348987  0.0000
  O1     O1        0.709708289132829    0.495134988428144    0.313515608393821  0.0000
  O1     O1        0.877104349276582    0.993114163829255    0.696231033849041  0.0000
  O1     O1        0.204905409308607    0.003832422484777    0.304213712983262  0.0000
