data_c00140.vasp
_audit_creation_method             Generated by GULP
_audit_author_name                 Salvador R. G. Balestra
_symmetry_space_group_name_H-M     'P 1             '
_symmetry_Int_Tables_number        1

loop_
_symmetry_equiv_pos_site_id
_symmetry_equiv_pos_as_xyz
_cell_length_a                       10.2789
_cell_length_b                       15.8091
_cell_length_c                        9.2108
_cell_angle_alpha                   90.8132
_cell_angle_beta                   105.5563
_cell_angle_gamma                   90.2318

loop_
_atom_site_label
_atom_site_type_symbol
_atom_site_fract_x
_atom_site_fract_y
_atom_site_fract_z
_atom_site_charge
  Ge     Ge        0.351599999999962    0.244500000000016    0.893900000000031  0.0000
  Ge     Ge        0.652023419387501    0.208463361539152    0.098385952643592  0.0000
  Ge     Ge        0.672163184287886    0.722143354121362    0.103925935260232  0.0000
  Ge     Ge        0.367395079128843    0.740194188013833    0.891816977152060  0.0000
  Ge     Ge        0.874653206348435    0.735460574644736    0.892147300816975  0.0000
  Ge     Ge        0.171487541968497    0.713963446885514    0.106075032499192  0.0000
  Ge     Ge        0.144097060013777    0.232243709489142    0.099963659425917  0.0000
  Ge     Ge        0.329319242831191    0.369504685250919    0.334894646368329  0.0000
  Ge     Ge        0.738198336802496    0.384253050182346    0.689765740373831  0.0000
  Ge     Ge        0.745386447708822    0.584952777647637    0.660058043470451  0.0000
  Ge     Ge        0.844978000846065    0.861725573160229    0.347788751249197  0.0000
  Ge     Ge        0.251314027172079    0.896978064764324    0.691682158125593  0.0000
  Ge     Ge        0.227845039091618    0.096982576767090    0.658749413904014  0.0000
  Ge     Ge        0.822886240146933    0.062859345884048    0.308995983791854  0.0000
  Ge     Ge        0.424694835562587    0.394548625424123    0.695313866193577  0.0000
  Ge     Ge        0.640013004198169    0.360021397492400    0.322704765352261  0.0000
  Ge     Ge        0.648588171900232    0.562368346248859    0.293877975435035  0.0000
  Ge     Ge        0.429760939370272    0.594399334123264    0.657498705999129  0.0000
  Ge     Ge        0.157758545487152    0.868183744365671    0.329658706117365  0.0000
  Ge     Ge        0.134321796059642    0.069866042637919    0.293694695102885  0.0000
  Ge     Ge        0.918336833926666    0.085575417522272    0.671919152724978  0.0000
  Si     Si        0.846257697865240    0.228718381769703    0.890328818982624  0.0000
  Si     Si        0.343813617966754    0.568921436602539    0.305310177657554  0.0000
  Si     Si        0.942260759126829    0.888540084975732    0.699823455024518  0.0000
  O1     O1        0.479293666438009    0.214290131066462    0.044280749620108  0.0000
  O1     O1        0.498329197923998    0.730093040387229    0.048016930338808  0.0000
  O1     O1        0.997914002922892    0.711405202842015    0.051590672565497  0.0000
  O3     O3        0.968405432619582    0.229411222708360    0.040996878719701  0.0000
  O1     O1        0.340163989688905    0.172634852910231    0.749226222205088  0.0000
  O1     O1        0.695302812017202    0.113637960998774    0.183219231752001  0.0000
  O1     O1        0.728287310890448    0.789197597247868    0.255730535038531  0.0000
  O1     O1        0.367203635215106    0.840072546300426    0.818647260035509  0.0000
  O1     O1        0.861812713902327    0.657391028506298    0.758384875405403  0.0000
  O3     O3        0.226038491485218    0.619564861370276    0.192463484273589  0.0000
  O1     O1        0.194318528010912    0.310983516958770    0.234190929020009  0.0000
  O3     O3        0.850887568385931    0.315048122269745    0.800706224845387  0.0000
  O1     O1        0.373257582883277    0.343747898696920    0.832579902312840  0.0000
  O1     O1        0.711479405157300    0.288537273469993    0.227999868060491  0.0000
  O1     O1        0.706181041726729    0.620478893628171    0.168676190966905  0.0000
  O1     O1        0.361848915092658    0.668787402612455    0.748666392891180  0.0000
  O3     O3        0.901423873206487    0.833984980512010    0.825904878274725  0.0000
  O1     O1        0.225553470814728    0.798168069311471    0.227936222114923  0.0000
  O1     O1        0.192727768484412    0.135260509750978    0.178531577047412  0.0000
  O3     O3        0.846530137477939    0.147951788265028    0.783040560498601  0.0000
  O1     O1        0.204204331961184    0.247930563861611    0.947955927313022  0.0000
  O3     O3        0.707096495697503    0.223285996628255    0.938656489537610  0.0000
  O1     O1        0.728863710337743    0.743340789050900    0.950790900683693  0.0000
  O1     O1        0.220313451118409    0.726004051385589    0.944523716366585  0.0000
  O1     O1        0.465514156618260    0.353010650248596    0.263470845098790  0.0000
  O1     O1        0.598025725604284    0.399040286223033    0.752924778601036  0.0000
  O1     O1        0.602946695473801    0.594724502878454    0.723641319134463  0.0000
  O3     O3        0.472789346304226    0.561196340164928    0.238996341161831  0.0000
  O1     O1        0.984061701203627    0.858606656904267    0.278231349237022  0.0000
  O3     O3        0.102463504030398    0.903726891209960    0.745950948895761  0.0000
  O1     O1        0.089725063845151    0.098948435174930    0.731810824717710  0.0000
  O1     O1        0.961316519429683    0.061502288686193    0.238526689669917  0.0000
  O1     O1        0.369909498541147    0.344207814067947    0.522550342123693  0.0000
  O1     O1        0.686953832962244    0.340752913713348    0.511878657849762  0.0000
  O1     O1        0.706625355983332    0.605818709851203    0.471386765544274  0.0000
  O3     O3        0.390428390317493    0.616364717361200    0.466858453112801  0.0000
  O3     O3        0.895841320943406    0.840107863159539    0.539051988088259  0.0000
  O1     O1        0.218174438846438    0.848268228572667    0.517824350638195  0.0000
  O1     O1        0.174407711766778    0.116157462146350    0.470541954003970  0.0000
  O1     O1        0.860904926031099    0.110690265095239    0.485059233298871  0.0000
  O3     O3        0.289402564345197    0.476029110351132    0.327724521514225  0.0000
  O1     O1        0.807217899475149    0.483200869377532    0.686079684745270  0.0000
  O1     O1        0.774634009134078    0.960277276676803    0.325047374208540  0.0000
  O1     O1        0.303310635495625    0.999081045804150    0.682262927573453  0.0000
  O1     O1        0.367524472595195    0.496658145174923    0.683483260351375  0.0000
  O1     O1        0.697097057810755    0.459257099514451    0.294091407949371  0.0000
  O3     O3        0.873774284557071    0.980511280208407    0.688010317741658  0.0000
  O1     O1        0.201283860020604    0.970653148028281    0.298458839325406  0.0000
