data_c00132.vasp
_audit_creation_method             Generated by GULP
_audit_author_name                 Salvador R. G. Balestra
_symmetry_space_group_name_H-M     'P 1             '
_symmetry_Int_Tables_number        1

loop_
_symmetry_equiv_pos_site_id
_symmetry_equiv_pos_as_xyz
_cell_length_a                       10.2441
_cell_length_b                       15.8019
_cell_length_c                        9.2682
_cell_angle_alpha                   89.7075
_cell_angle_beta                   105.5751
_cell_angle_gamma                   89.4484

loop_
_atom_site_label
_atom_site_type_symbol
_atom_site_fract_x
_atom_site_fract_y
_atom_site_fract_z
_atom_site_charge
  Ge     Ge        0.351599999999962    0.244500000000016    0.893900000000031  0.0000
  Ge     Ge        0.654740905519269    0.250177972792211    0.115561531593647  0.0000
  Ge     Ge        0.663406021573330    0.760314640260664    0.117491442600016  0.0000
  Ge     Ge        0.364462403504785    0.741735387584953    0.906681961853480  0.0000
  Ge     Ge        0.854318350016031    0.741735317872911    0.897007964656404  0.0000
  Ge     Ge        0.157887738847181    0.751547966374427    0.111915597609562  0.0000
  Ge     Ge        0.147527719418823    0.262812938562221    0.099007026548216  0.0000
  Ge     Ge        0.330635145762462    0.406325995505948    0.310189847478924  0.0000
  Ge     Ge        0.729359231954856    0.382649782635466    0.670310296384024  0.0000
  Ge     Ge        0.751184992423946    0.581490237679471    0.697398898412434  0.0000
  Ge     Ge        0.338917224880393    0.610782215888032    0.344936889676185  0.0000
  Ge     Ge        0.232535753384230    0.887064644532452    0.669506719321133  0.0000
  Ge     Ge        0.237564466975020    0.088983405572448    0.692793961785464  0.0000
  Ge     Ge        0.826231609773270    0.106670858141351    0.344359241153265  0.0000
  Ge     Ge        0.411052218940335    0.389080043098387    0.665028410123121  0.0000
  Ge     Ge        0.651200815501330    0.604258540734842    0.332725152150457  0.0000
  Ge     Ge        0.434444074506112    0.590334224606771    0.701029665681587  0.0000
  Ge     Ge        0.917215190182778    0.890174949587982    0.673148276262080  0.0000
  Ge     Ge        0.140273076111018    0.910236815455165    0.309288732346803  0.0000
  Ge     Ge        0.137630981719472    0.113348360604701    0.331308950509663  0.0000
  Ge     Ge        0.922753448997079    0.091648716887653    0.704898895953983  0.0000
  Si     Si        0.850067402270100    0.238793934406171    0.902856253826680  0.0000
  Si     Si        0.833796728131264    0.907398987187108    0.320625791230343  0.0000
  Si     Si        0.642025537487262    0.405466060160390    0.312505962938906  0.0000
  O1     O1        0.481173075234198    0.251428329073155    0.052636561544837  0.0000
  O1     O1        0.489046533174218    0.765610150262668    0.064884362630180  0.0000
  O1     O1        0.983319883620063    0.749755343970427    0.055982044722617  0.0000
  O3     O3        0.971508423455814    0.264839926412340    0.044280738469163  0.0000
  O1     O1        0.360020191736933    0.150806945563554    0.802989961734438  0.0000
  O1     O1        0.696447146638959    0.167246414824781    0.238511403248816  0.0000
  O3     O3        0.719275910842497    0.853274710829214    0.209408109526296  0.0000
  O1     O1        0.351604995021224    0.817217931650145    0.769451451951609  0.0000
  O1     O1        0.865535021427111    0.646116181735538    0.812037396958212  0.0000
  O1     O1        0.211196405314958    0.675108493422369    0.246369055862270  0.0000
  O1     O1        0.206589123680947    0.358018189370172    0.176973788037888  0.0000
  O3     O3        0.837460249259606    0.304356932906522    0.765477756679177  0.0000
  O1     O1        0.339150233709180    0.328272796413874    0.773727928081376  0.0000
  O3     O3        0.703114856392532    0.345135363357067    0.207463387313807  0.0000
  O1     O1        0.719504241470072    0.673491764792808    0.231827530511613  0.0000
  O1     O1        0.386580213391246    0.643847964799048    0.838044384270192  0.0000
  O1     O1        0.843976159885850    0.820878809279106    0.767260019620070  0.0000
  O1     O1        0.199688688766823    0.850321709233790    0.187868107109782  0.0000
  O1     O1        0.203301937896061    0.184222587837493    0.231119844951137  0.0000
  O3     O3        0.872367858840663    0.146373981281879    0.842523276304265  0.0000
  O1     O1        0.201232793721465    0.243960704260420    0.943863450545549  0.0000
  O3     O3        0.714303910843370    0.240402153613115    0.958902198557240  0.0000
  O1     O1        0.707187184501544    0.748772557722107    0.953134717387839  0.0000
  O1     O1        0.214721030452242    0.737155290023863    0.957513265830965  0.0000
  O3     O3        0.479019086635095    0.409297887529748    0.253927719762878  0.0000
  O1     O1        0.585077573128051    0.382240157802551    0.729713703420763  0.0000
  O1     O1        0.606708498697277    0.577345009466514    0.757402010511874  0.0000
  O1     O1        0.478010226564818    0.616880792693461    0.274407816639856  0.0000
  O3     O3        0.963898709810572    0.914685299484109    0.256062986398120  0.0000
  O1     O1        0.091113892515414    0.883625550443547    0.736399747265291  0.0000
  O1     O1        0.095661768860501    0.083043668191190    0.758181991376348  0.0000
  O1     O1        0.963259007445369    0.119486194572028    0.273887519789119  0.0000
  O1     O1        0.360415604601015    0.356940770045008    0.481439835735650  0.0000
  O3     O3        0.682636070883883    0.365823794337379    0.479353295664088  0.0000
  O1     O1        0.708750213668973    0.624518126217947    0.519743673821321  0.0000
  O1     O1        0.386714712100907    0.640783247187442    0.529639186221096  0.0000
  O3     O3        0.876676716739506    0.864478143905174    0.484453738358671  0.0000
  O1     O1        0.191471520717701    0.863238946230371    0.482889485809789  0.0000
  O1     O1        0.187010832846369    0.135493935357387    0.518221670630639  0.0000
  O1     O1        0.865731784057196    0.136268171177993    0.529562167738449  0.0000
  O1     O1        0.282359682395009    0.508588342331917    0.331258762721359  0.0000
  O1     O1        0.808720347473605    0.478908489803936    0.699663999108740  0.0000
  O3     O3        0.778444869362934    0.001566278422757    0.337320055325827  0.0000
  O1     O1        0.296707851100889    0.988118481730859    0.684965253652309  0.0000
  O1     O1        0.361646045217174    0.492180583272946    0.676953392471715  0.0000
  O3     O3        0.698105221726418    0.499731097897037    0.310633201301449  0.0000
  O1     O1        0.861920211646594    0.990290205290099    0.698323587727648  0.0000
  O1     O1        0.194069075941785    0.012234550200476    0.309238800984010  0.0000
