data_c00187.vasp
_audit_creation_method             Generated by GULP
_audit_author_name                 Salvador R. G. Balestra
_symmetry_space_group_name_H-M     'P 1             '
_symmetry_Int_Tables_number        1

loop_
_symmetry_equiv_pos_site_id
_symmetry_equiv_pos_as_xyz
_cell_length_a                       10.2546
_cell_length_b                       15.8198
_cell_length_c                        9.2792
_cell_angle_alpha                   89.5548
_cell_angle_beta                   106.0593
_cell_angle_gamma                   89.9424

loop_
_atom_site_label
_atom_site_type_symbol
_atom_site_fract_x
_atom_site_fract_y
_atom_site_fract_z
_atom_site_charge
  Ge     Ge        0.351599999999962    0.244500000000016    0.893900000000031  0.0000
  Ge     Ge        0.660134695988996    0.251186529712455    0.109261037752257  0.0000
  Ge     Ge        0.653920542921669    0.765132235306604    0.118147255698300  0.0000
  Ge     Ge        0.353672542065106    0.739497101406289    0.908220158540269  0.0000
  Ge     Ge        0.844323238067814    0.745774752288514    0.898802023150030  0.0000
  Ge     Ge        0.149203378074926    0.748575339295943    0.114482514073108  0.0000
  Ge     Ge        0.154660524605602    0.264296495975139    0.108065824074309  0.0000
  Ge     Ge        0.727686411572976    0.384346800820259    0.674304955614391  0.0000
  Ge     Ge        0.738830038473187    0.585098598730260    0.700064726264897  0.0000
  Ge     Ge        0.329810400239062    0.607652053301840    0.344217579497567  0.0000
  Ge     Ge        0.225557344642710    0.885912918800705    0.672075705068651  0.0000
  Ge     Ge        0.241046384027959    0.086775873512795    0.694837182878866  0.0000
  Ge     Ge        0.828697687644024    0.109684369429655    0.344015983040227  0.0000
  Ge     Ge        0.409209120177310    0.388217591491044    0.663222305871474  0.0000
  Ge     Ge        0.639515479023039    0.406815895858783    0.311310394101142  0.0000
  Ge     Ge        0.642100759206747    0.610326127463862    0.335476585691171  0.0000
  Ge     Ge        0.422560905735365    0.588391305453974    0.703253574890377  0.0000
  Ge     Ge        0.910606875228150    0.892817853654146    0.673885372003611  0.0000
  Ge     Ge        0.134236340025447    0.908043908844051    0.310561225601073  0.0000
  Ge     Ge        0.142075936926393    0.111655359570530    0.332723058219937  0.0000
  Ge     Ge        0.923984858801453    0.093727452401883    0.703294547719729  0.0000
  Si     Si        0.858593043995280    0.241692518784425    0.905012983109914  0.0000
  Si     Si        0.330949268718148    0.407533094741165    0.312607000249951  0.0000
  Si     Si        0.828394386401841    0.909946315187604    0.320957887774880  0.0000
  O1     O1        0.485870362076449    0.256571060818933    0.047095767358851  0.0000
  O1     O1        0.479307172433443    0.765445382653934    0.065596142089988  0.0000
  O1     O1        0.974537706019058    0.752326399484006    0.058523056827288  0.0000
  O3     O3        0.978147789429079    0.266432122734854    0.050679185505368  0.0000
  O1     O1        0.359739195306867    0.147166667402797    0.815002303186814  0.0000
  O1     O1        0.699448540530143    0.169409378989016    0.235684279962159  0.0000
  O3     O3        0.709022368579773    0.859116428642945    0.207677097866735  0.0000
  O1     O1        0.341757120321711    0.814358970665689    0.770276630345878  0.0000
  O1     O1        0.853915617544208    0.649930354364102    0.815261980858685  0.0000
  O1     O1        0.198120545485083    0.667971017699601    0.242709796543431  0.0000
  O3     O3        0.210713818358192    0.358444284787605    0.196917062581059  0.0000
  O3     O3        0.843985004917570    0.311453209811310    0.774518636487226  0.0000
  O1     O1        0.333762665707485    0.319583102899166    0.755760813564843  0.0000
  O1     O1        0.706129390427443    0.346252687491814    0.197205868459551  0.0000
  O1     O1        0.711531807997207    0.681130714731290    0.238166774629011  0.0000
  O1     O1        0.373754273151285    0.641900272084428    0.838715097516316  0.0000
  O1     O1        0.835825590859496    0.824802028858616    0.769095829991291  0.0000
  O1     O1        0.196508261723416    0.845609704487781    0.195931958684351  0.0000
  O1     O1        0.208608517445357    0.181191640830451    0.230383044061683  0.0000
  O3     O3        0.881805044041053    0.150602716184546    0.842111180437386  0.0000
  O1     O1        0.205419083329796    0.251323423075692    0.950223051829165  0.0000
  O3     O3        0.720284706831732    0.238211587488633    0.955367351632609  0.0000
  O1     O1        0.697619608133368    0.753218672375469    0.954435696324176  0.0000
  O1     O1        0.204642270709759    0.735334701667321    0.959570029761770  0.0000
  O3     O3        0.462948643726697    0.410276446350994    0.251025497286155  0.0000
  O1     O1        0.583298254823793    0.382629339784868    0.733510929767111  0.0000
  O1     O1        0.595576459161995    0.578938088878927    0.761127605866175  0.0000
  O1     O1        0.467447735541545    0.619714989093509    0.274799983360541  0.0000
  O3     O3        0.957719675892523    0.913698839804002    0.255116491888275  0.0000
  O1     O1        0.084571271186071    0.884716273931119    0.738870740673397  0.0000
  O1     O1        0.096100370999234    0.081531783255489    0.753517073336121  0.0000
  O1     O1        0.967802101908089    0.121384773145289    0.277692403928748  0.0000
  O3     O3        0.370566132911211    0.362126407950582    0.474830897496014  0.0000
  O1     O1        0.688781309622268    0.362074093456933    0.487191883155730  0.0000
  O1     O1        0.692411587858133    0.629876890980852    0.523600342754166  0.0000
  O1     O1        0.371404970829801    0.636442593259194    0.529520679043876  0.0000
  O3     O3        0.869040770205369    0.866753328210343    0.484928428934667  0.0000
  O1     O1        0.181468769645628    0.862329493126787    0.485391542064202  0.0000
  O1     O1        0.198294607670043    0.133371493748688    0.519891537757747  0.0000
  O1     O1        0.867077092618688    0.139833899039564    0.529033212201071  0.0000
  O3     O3        0.282998813068007    0.502143549281670    0.333961777260183  0.0000
  O1     O1        0.798194771595563    0.484084664668725    0.696535810844501  0.0000
  O3     O3        0.779636646636578    0.004895081517353    0.339304674586766  0.0000
  O1     O1        0.296563071869589    0.985440461703757    0.688384951860713  0.0000
  O1     O1        0.355439513245080    0.488259930643640    0.686673943734307  0.0000
  O1     O1        0.693350278774188    0.508982357912778    0.310340585110817  0.0000
  O1     O1        0.858158336058389    0.993426501848261    0.697760008214990  0.0000
  O1     O1        0.190915943734203    0.009567562907304    0.308387146049103  0.0000
