data_c00184.vasp
_audit_creation_method             Generated by GULP
_audit_author_name                 Salvador R. G. Balestra
_symmetry_space_group_name_H-M     'P 1             '
_symmetry_Int_Tables_number        1

loop_
_symmetry_equiv_pos_site_id
_symmetry_equiv_pos_as_xyz
_cell_length_a                       10.2131
_cell_length_b                       15.8222
_cell_length_c                        9.3449
_cell_angle_alpha                   90.0151
_cell_angle_beta                   105.6035
_cell_angle_gamma                   89.6601

loop_
_atom_site_label
_atom_site_type_symbol
_atom_site_fract_x
_atom_site_fract_y
_atom_site_fract_z
_atom_site_charge
  Ge     Ge        0.351599999999962    0.244500000000016    0.893900000000031  0.0000
  Ge     Ge        0.657514594362227    0.256926569527048    0.104947696032886  0.0000
  Ge     Ge        0.645820519300344    0.757144654872501    0.108683341699501  0.0000
  Ge     Ge        0.343344205077790    0.757705234447468    0.893007748386661  0.0000
  Ge     Ge        0.841014987471774    0.751866667059499    0.893282426645747  0.0000
  Ge     Ge        0.143582055845254    0.754868470468690    0.103809973639710  0.0000
  Ge     Ge        0.148199918374731    0.255728765556857    0.104765972063619  0.0000
  Ge     Ge        0.671067970264147    0.400578889664752    0.675182630019072  0.0000
  Ge     Ge        0.664895886395857    0.604549294024275    0.677568570405770  0.0000
  Ge     Ge        0.262371675977265    0.601645750325414    0.318310384424355  0.0000
  Ge     Ge        0.757279881264874    0.912380159864826    0.319391103119333  0.0000
  Ge     Ge        0.162147766920959    0.900961560831490    0.670896336272051  0.0000
  Ge     Ge        0.172999579760662    0.105487092523766    0.671501646795187  0.0000
  Ge     Ge        0.353316737696671    0.399759465005234    0.677129363063656  0.0000
  Ge     Ge        0.582522973607424    0.402335367594840    0.321967297967568  0.0000
  Ge     Ge        0.578355756598102    0.607465806821544    0.322484930777764  0.0000
  Ge     Ge        0.348801207900129    0.601200969901585    0.681777039216984  0.0000
  Ge     Ge        0.849198584616817    0.909289352781435    0.684863791155873  0.0000
  Ge     Ge        0.072284477463946    0.903959512945165    0.317317860549417  0.0000
  Ge     Ge        0.077101341299218    0.107811889173733    0.321004730672914  0.0000
  Ge     Ge        0.858512860205694    0.111178695027658    0.686535986894727  0.0000
  Si     Si        0.852500058728478    0.264536892338614    0.896098988798399  0.0000
  Si     Si        0.270669572788604    0.402960913448336    0.322111517954615  0.0000
  Si     Si        0.766056717197171    0.109439303675629    0.330196591162540  0.0000
  O1     O1        0.526036877354988    0.244514378574536    0.949954960845333  0.0000
  O1     O1        0.518382913844595    0.758166603381436    0.946846474702166  0.0000
  O1     O1        0.016143799923169    0.750551854591074    0.942794644663257  0.0000
  O3     O3        0.015869610576510    0.267548297927616    0.945603313297617  0.0000
  O1     O1        0.305060648528392    0.154358561002480    0.792900857674507  0.0000
  O3     O3        0.661252524243414    0.175406243981978    0.230128332346867  0.0000
  O1     O1        0.638138668415416    0.845731293146169    0.214349578025629  0.0000
  O1     O1        0.292046536119019    0.845276136498552    0.784641793669192  0.0000
  O1     O1        0.790165479995094    0.662039044113294    0.792698554475800  0.0000
  O1     O1        0.140749096843876    0.667108735840856    0.212797354352072  0.0000
  O3     O3        0.158633530462272    0.340910438497946    0.223674775562593  0.0000
  O3     O3        0.799514118253319    0.347306916071245    0.800083629981273  0.0000
  O1     O1        0.290188730096204    0.329699209335541    0.779283928866688  0.0000
  O1     O1        0.643333799360753    0.349633266980543    0.193987392056307  0.0000
  O1     O1        0.648629089116802    0.667138224011921    0.211219988262405  0.0000
  O1     O1        0.284828181495827    0.668970131638152    0.788502955374268  0.0000
  O1     O1        0.782561219923667    0.840339020014410    0.786707534147410  0.0000
  O1     O1        0.139998307415690    0.845890015313222    0.201211519755854  0.0000
  O1     O1        0.131794732881811    0.163484736958013    0.192705555486996  0.0000
  O3     O3        0.798945834298423    0.182831179544201    0.793491836573238  0.0000
  O1     O1        0.294932055115048    0.248795931362925    0.049901040231263  0.0000
  O3     O3        0.804875673353189    0.260176116156005    0.046528444656661  0.0000
  O1     O1        0.794829509024403    0.755517897751867    0.055676228346129  0.0000
  O1     O1        0.293691320094620    0.757564244853288    0.053125587827682  0.0000
  O3     O3        0.405708879568827    0.402675620192189    0.264368153865090  0.0000
  O1     O1        0.528061766617516    0.398139832026646    0.737873087874128  0.0000
  O1     O1        0.523580191718345    0.601948798917954    0.743605348620937  0.0000
  O1     O1        0.404326510817641    0.608621137644862    0.254140740320542  0.0000
  O1     O1        0.897916852758059    0.905989338315509    0.252972002628930  0.0000
  O1     O1        0.024193527570418    0.903479917485475    0.742762682331737  0.0000
  O1     O1        0.032419283466394    0.110707230808368    0.739727082829444  0.0000
  O3     O3        0.900983261782961    0.105794393143976    0.273098951099406  0.0000
  O3     O3        0.311677533767419    0.371310988346291    0.491628388088930  0.0000
  O1     O1        0.637846817598365    0.360436959972502    0.497722547482110  0.0000
  O1     O1        0.621077057260027    0.646093412384424    0.500894585153956  0.0000
  O1     O1        0.301768851878242    0.633791531474484    0.499962497713826  0.0000
  O1     O1        0.799023192705524    0.880587999537461    0.501370554163165  0.0000
  O1     O1        0.115586393790384    0.861138244054371    0.493195175264059  0.0000
  O1     O1        0.135811650169911    0.149200821893640    0.496180082338304  0.0000
  O3     O3        0.805331306555684    0.139254216400328    0.500760996242517  0.0000
  O3     O3        0.209566580200493    0.497338581755639    0.312585477455264  0.0000
  O1     O1        0.721814569577597    0.502949569177386    0.667856810660013  0.0000
  O3     O3        0.700664823814793    0.016428551587724    0.315658485556152  0.0000
  O1     O1        0.215862935598250    0.002174552807445    0.655066885720145  0.0000
  O1     O1        0.293959040810916    0.499676254908547    0.694996715748889  0.0000
  O1     O1        0.635500678690912    0.505023350652344    0.325902314442558  0.0000
  O1     O1        0.800239251430369    0.011756990178031    0.707372534439456  0.0000
  O1     O1        0.131994934153618    0.005358619961080    0.320282077347346  0.0000
