data_c00199.vasp
_audit_creation_method             Generated by GULP
_audit_author_name                 Salvador R. G. Balestra
_symmetry_space_group_name_H-M     'P 1             '
_symmetry_Int_Tables_number        1

loop_
_symmetry_equiv_pos_site_id
_symmetry_equiv_pos_as_xyz
_cell_length_a                       10.1782
_cell_length_b                       15.8301
_cell_length_c                        9.3052
_cell_angle_alpha                   89.9906
_cell_angle_beta                   105.3565
_cell_angle_gamma                   88.9873

loop_
_atom_site_label
_atom_site_type_symbol
_atom_site_fract_x
_atom_site_fract_y
_atom_site_fract_z
_atom_site_charge
  Ge     Ge        0.351599999999962    0.244500000000016    0.893900000000031  0.0000
  Ge     Ge        0.658675794333827    0.259502147420480    0.097158876484320  0.0000
  Ge     Ge        0.656161872246734    0.755659834068274    0.114884555060310  0.0000
  Ge     Ge        0.349927958220914    0.753552200689566    0.899065608290594  0.0000
  Ge     Ge        0.858719223416243    0.746080574256055    0.903827175401140  0.0000
  Ge     Ge        0.150242557657410    0.258115098480777    0.104902536580084  0.0000
  Ge     Ge        0.270494411918857    0.412891816759406    0.308683522307725  0.0000
  Ge     Ge        0.679356446268961    0.393488147515264    0.667619976710826  0.0000
  Ge     Ge        0.684155934007939    0.597043646820964    0.693534566119931  0.0000
  Ge     Ge        0.279305407284590    0.614873019230292    0.329624513007724  0.0000
  Ge     Ge        0.761282687215135    0.912175640196131    0.321113696600422  0.0000
  Ge     Ge        0.177762329604023    0.895606350127609    0.666809982269106  0.0000
  Ge     Ge        0.178400680555315    0.098526904673532    0.679382067269346  0.0000
  Ge     Ge        0.769407089248304    0.112031202919830    0.335302191468786  0.0000
  Ge     Ge        0.361926489631561    0.396040225224864    0.671513181727772  0.0000
  Ge     Ge        0.590077463852116    0.406280218519262    0.310800610541464  0.0000
  Ge     Ge        0.598719519485960    0.609286430523947    0.337241003331358  0.0000
  Ge     Ge        0.364901173852143    0.597891059794813    0.692977792509113  0.0000
  Ge     Ge        0.864579267451793    0.901173271298180    0.685462840449266  0.0000
  Ge     Ge        0.078979800322271    0.906583422045959    0.311362997143697  0.0000
  Ge     Ge        0.088763255322471    0.109667487180543    0.326603270039858  0.0000
  Si     Si        0.154365193253716    0.761514507917922    0.107205293185996  0.0000
  Si     Si        0.858188727742058    0.251768297818403    0.888378750765837  0.0000
  Si     Si        0.866571409396153    0.098188423665698    0.690396645511147  0.0000
  O1     O1        0.526790615575493    0.243567535099667    0.943814075665572  0.0000
  O1     O1        0.525241912292743    0.750996005372195    0.957514118183866  0.0000
  O3     O3        0.035982899783503    0.743437782725119    0.958846890583045  0.0000
  O3     O3        0.021448501557323    0.257070013796998    0.941336476874919  0.0000
  O1     O1        0.297494287241959    0.150209961738511    0.810537619935776  0.0000
  O1     O1        0.659131009591072    0.185673370154775    0.233546519961694  0.0000
  O1     O1        0.644564418599316    0.845952920694979    0.214581208779827  0.0000
  O1     O1        0.306910862661715    0.835589336250108    0.775721429548791  0.0000
  O1     O1        0.808731351527486    0.653546120454171    0.812004195707594  0.0000
  O3     O3        0.162840087382035    0.688308555483688    0.229822523623592  0.0000
  O1     O1        0.147125988902671    0.349435073216694    0.203515952547048  0.0000
  O3     O3        0.803505192725563    0.329083997086291    0.778428255729098  0.0000
  O1     O1        0.293315252778402    0.326253990438864    0.769894945036457  0.0000
  O1     O1        0.652373314061877    0.355732095107980    0.179507887159825  0.0000
  O1     O1        0.671180072494961    0.669219021332619    0.228856722071866  0.0000
  O1     O1        0.298527374428684    0.660834135384684    0.806780099499762  0.0000
  O1     O1        0.800578355721562    0.832256806634134    0.789515894554116  0.0000
  O3     O3        0.132679711234555    0.851248569270830    0.177211135681535  0.0000
  O1     O1        0.154307896054357    0.170131611747983    0.211809948370080  0.0000
  O2     O2        0.817091364268786    0.162970390095295    0.801112348421993  0.0000
  O1     O1        0.300429583179193    0.257696316183484    0.052754995317982  0.0000
  O3     O3        0.806144638079154    0.254164152473394    0.036549652139152  0.0000
  O1     O1        0.805466975311313    0.756359696072293    0.061547183424542  0.0000
  O3     O3        0.294764360923857    0.763621117093822    0.058311455286315  0.0000
  O1     O1        0.415489426922362    0.411906716476335    0.246648298083930  0.0000
  O1     O1        0.537264170427629    0.392636494016594    0.733745892191425  0.0000
  O1     O1        0.540051810243741    0.594731266791060    0.756283565455107  0.0000
  O1     O1        0.424019101799277    0.613987236127499    0.268301871876687  0.0000
  O1     O1        0.905050016562404    0.915301366532130    0.257313619279488  0.0000
  O1     O1        0.038929674542949    0.891150881184602    0.738719637134952  0.0000
  O3     O3        0.029567285969668    0.089735459064553    0.734875260247535  0.0000
  O1     O1        0.914018026754234    0.114551690866761    0.273881485056731  0.0000
  O1     O1        0.317238879465098    0.371750131221378    0.486270696593171  0.0000
  O1     O1        0.638914078533295    0.360291572889076    0.485550802213464  0.0000
  O1     O1        0.642897191847440    0.642563062317357    0.518992430577344  0.0000
  O1     O1        0.321036087866262    0.639309931739718    0.515110298402086  0.0000
  O1     O1        0.807696881203598    0.875324779019267    0.501182392186537  0.0000
  O1     O1        0.131915036264619    0.860852477720503    0.484759742208873  0.0000
  O1     O1        0.145328731837030    0.145428376469774    0.507416613816505  0.0000
  O3     O3        0.813341909818498    0.134735537597832    0.523944917684533  0.0000
  O1     O1        0.211598032924591    0.515142541160019    0.308472305165307  0.0000
  O1     O1        0.739127907163644    0.494686975372914    0.679578324153921  0.0000
  O1     O1        0.698279992932914    0.013938364252451    0.313517020727728  0.0000
  O1     O1        0.233666392973823    0.996843585988748    0.664629667666493  0.0000
  O1     O1        0.305059513805563    0.497399000124850    0.691421507776117  0.0000
  O1     O1        0.653074097894634    0.506516918800911    0.332631885113164  0.0000
  O3     O3        0.810406047587025    0.005085986270718    0.703418859091073  0.0000
  O1     O1        0.142610739761073    0.006787516677799    0.319515518007902  0.0000
