data_c00148.vasp
_audit_creation_method             Generated by GULP
_audit_author_name                 Salvador R. G. Balestra
_symmetry_space_group_name_H-M     'P 1             '
_symmetry_Int_Tables_number        1

loop_
_symmetry_equiv_pos_site_id
_symmetry_equiv_pos_as_xyz
_cell_length_a                       10.2236
_cell_length_b                       15.8125
_cell_length_c                        9.3430
_cell_angle_alpha                   90.1606
_cell_angle_beta                   105.6078
_cell_angle_gamma                   89.5572

loop_
_atom_site_label
_atom_site_type_symbol
_atom_site_fract_x
_atom_site_fract_y
_atom_site_fract_z
_atom_site_charge
  Ge     Ge        0.351599999999962    0.244500000000016    0.893900000000031  0.0000
  Ge     Ge        0.658148745761717    0.245982864500529    0.104543423982455  0.0000
  Ge     Ge        0.676032942982072    0.746194246845887    0.117125269071594  0.0000
  Ge     Ge        0.374003284753877    0.757764539260608    0.901450575061320  0.0000
  Ge     Ge        0.872391656362636    0.736668639112019    0.902012678674282  0.0000
  Ge     Ge        0.173937828668444    0.748373575821927    0.112556163626176  0.0000
  Ge     Ge        0.148402450917652    0.249631344262441    0.104465464508887  0.0000
  Ge     Ge        0.276412273529337    0.401187638477331    0.318027731450311  0.0000
  Ge     Ge        0.677228928916509    0.391114611732619    0.679094671036320  0.0000
  Ge     Ge        0.689543824852744    0.595084111803276    0.681636685081178  0.0000
  Ge     Ge        0.187467797916123    0.895539263947931    0.676370053006637  0.0000
  Ge     Ge        0.178526869943090    0.100327527354705    0.673637717853687  0.0000
  Ge     Ge        0.770752081421921    0.093518130018518    0.324138711832640  0.0000
  Ge     Ge        0.360428421157823    0.398996070906324    0.681331258390601  0.0000
  Ge     Ge        0.593886331073649    0.392958516654301    0.324274302799104  0.0000
  Ge     Ge        0.598184233006843    0.598146203336505    0.328363832434315  0.0000
  Ge     Ge        0.373645019592364    0.600213376905875    0.686698879031516  0.0000
  Ge     Ge        0.874008965608299    0.895280919027525    0.691328244847447  0.0000
  Ge     Ge        0.092381603084513    0.896015274047516    0.324730296253811  0.0000
  Ge     Ge        0.086202993253621    0.100205857153376    0.320758944089729  0.0000
  Ge     Ge        0.865368364740765    0.097395738997596    0.688806919972683  0.0000
  Si     Si        0.852696938656951    0.249785514512273    0.896088946322488  0.0000
  Si     Si        0.288619976895738    0.599652844657392    0.330530561073788  0.0000
  Si     Si        0.783134105320568    0.896324561722943    0.334065830285179  0.0000
  O1     O1        0.526221092998916    0.245692201463370    0.948485601050655  0.0000
  O1     O1        0.548403555474622    0.758693755723347    0.956775788904312  0.0000
  O1     O1        0.046908027327127    0.733556180815716    0.953117825678795  0.0000
  O3     O3        0.016284963272974    0.252016797741494    0.944330231268674  0.0000
  O1     O1        0.306802255722691    0.155037360715911    0.789477995867812  0.0000
  O1     O1        0.651975709637403    0.158942242015140    0.213553585373783  0.0000
  O3     O3        0.677563392516712    0.829696143642950    0.238811647469298  0.0000
  O1     O1        0.321305603590402    0.846036625946083    0.795989907850762  0.0000
  O1     O1        0.819321606455432    0.647404568008573    0.800607362744459  0.0000
  O3     O3        0.180160604367870    0.665405217285304    0.235504117990885  0.0000
  O1     O1        0.151250641544099    0.338994119187403    0.211105456821971  0.0000
  O3     O3        0.801243192444104    0.332785333733997    0.799828394380179  0.0000
  O1     O1        0.293181264612010    0.332070275015415    0.785126827865567  0.0000
  O1     O1        0.665070562743764    0.335400445335888    0.209783749583665  0.0000
  O1     O1        0.657990749953535    0.653301809748309    0.203489142080630  0.0000
  O1     O1        0.312897379893661    0.671236405833084    0.790733300832899  0.0000
  O1     O1        0.812324692862317    0.824323820535202    0.793168898414188  0.0000
  O1     O1        0.147935290947178    0.841389536323495    0.195210884022313  0.0000
  O1     O1        0.151795309776899    0.159380070026059    0.204920666503635  0.0000
  O3     O3        0.800909565710081    0.167094506483525    0.795817597331007  0.0000
  O1     O1        0.296082863990121    0.246508154825555    0.049776609317637  0.0000
  O3     O3        0.806139926556993    0.246158649782437    0.046310881450644  0.0000
  O1     O1        0.823972043897353    0.740823972720613    0.064077736079875  0.0000
  O1     O1        0.322541060786445    0.755693300549487    0.061435220542591  0.0000
  O1     O1        0.419561023500994    0.392227717526367    0.256391730669110  0.0000
  O1     O1        0.535272169611699    0.396090787371105    0.742655167962573  0.0000
  O1     O1        0.548023698542470    0.599900408069779    0.747642967660178  0.0000
  O3     O3        0.421876433011898    0.597961129947874    0.269795828539629  0.0000
  O3     O3        0.915978281964785    0.899348794327869    0.273176112135284  0.0000
  O1     O1        0.048673438146620    0.891205523929432    0.746936120316607  0.0000
  O1     O1        0.039435471192711    0.098738467409463    0.743791257091571  0.0000
  O1     O1        0.912175274544958    0.100144155732655    0.259984821860473  0.0000
  O1     O1        0.313837779717583    0.367731478722986    0.499028214181236  0.0000
  O1     O1        0.636878688084098    0.351510029813463    0.501380383785036  0.0000
  O1     O1        0.653398787507660    0.637556064635171    0.505247559560996  0.0000
  O3     O3        0.332667390870501    0.629071727763063    0.501160514546748  0.0000
  O3     O3        0.827617814194073    0.867871921846280    0.504995645926972  0.0000
  O1     O1        0.149586317247649    0.853491543502661    0.499352102060216  0.0000
  O1     O1        0.132272020870825    0.141985329355425    0.497473090333552  0.0000
  O1     O1        0.808552416762147    0.126452582416989    0.505913977109427  0.0000
  O3     O3        0.225191393983128    0.506257317379852    0.316367516349896  0.0000
  O1     O1        0.736872145141640    0.491544344699121    0.671418893438806  0.0000
  O3     O3        0.716218410795472    0.989559760988089    0.320145087369612  0.0000
  O1     O1        0.231010910491952    0.998463821669405    0.658576283519769  0.0000
  O1     O1        0.310083528080244    0.501530767067342    0.700302554226921  0.0000
  O1     O1        0.651032149954687    0.494831087491476    0.329942534330347  0.0000
  O1     O1        0.816162584343699    0.995555262624010    0.711762794034231  0.0000
  O1     O1        0.146197723742850    0.998482194598753    0.323713680534643  0.0000
