data_c00106.vasp
_audit_creation_method             Generated by GULP
_audit_author_name                 Salvador R. G. Balestra
_symmetry_space_group_name_H-M     'P 1             '
_symmetry_Int_Tables_number        1

loop_
_symmetry_equiv_pos_site_id
_symmetry_equiv_pos_as_xyz
_cell_length_a                       10.1482
_cell_length_b                       15.7980
_cell_length_c                        9.2128
_cell_angle_alpha                   90.2740
_cell_angle_beta                   104.8169
_cell_angle_gamma                   90.5440

loop_
_atom_site_label
_atom_site_type_symbol
_atom_site_fract_x
_atom_site_fract_y
_atom_site_fract_z
_atom_site_charge
  Ge     Ge        0.351599999999962    0.244500000000016    0.893900000000031  0.0000
  Ge     Ge        0.641112936253154    0.219848673119198    0.116822696207112  0.0000
  Ge     Ge        0.614962533156102    0.743340766601130    0.122940565920802  0.0000
  Ge     Ge        0.313854891628180    0.739924164769858    0.903016202082336  0.0000
  Ge     Ge        0.816468995225901    0.752756305213150    0.908585098547503  0.0000
  Ge     Ge        0.112629326474239    0.717947793858754    0.115324247635592  0.0000
  Ge     Ge        0.136197023434993    0.235001501160606    0.095572035416152  0.0000
  Ge     Ge        0.309294379637326    0.366913524957402    0.355448791323600  0.0000
  Ge     Ge        0.723587252745416    0.403436344097402    0.690766697869706  0.0000
  Ge     Ge        0.699758865563704    0.600208845491043    0.682022116819544  0.0000
  Ge     Ge        0.294345323686159    0.572131312602149    0.320154484112170  0.0000
  Ge     Ge        0.798058947151480    0.880183793015251    0.356338830356260  0.0000
  Ge     Ge        0.212103130007718    0.899870013467387    0.696982520509385  0.0000
  Ge     Ge        0.215613807110107    0.100068296790637    0.657191026996342  0.0000
  Ge     Ge        0.635281451314002    0.374600214286808    0.340345937142628  0.0000
  Ge     Ge        0.607496326818159    0.578412915354368    0.310243022547965  0.0000
  Ge     Ge        0.386376364082121    0.590853168414299    0.685335589713895  0.0000
  Ge     Ge        0.896199072416322    0.906635375131822    0.714527373874669  0.0000
  Ge     Ge        0.109641592485782    0.873311836655204    0.333243845884443  0.0000
  Ge     Ge        0.113859452689792    0.075986223787353    0.294449819047977  0.0000
  Ge     Ge        0.900927854935648    0.106732710109166    0.674119899918527  0.0000
  Si     Si        0.828925698709795    0.247264315189065    0.898704365399208  0.0000
  Si     Si        0.809976309782769    0.079626742144950    0.325039828326218  0.0000
  Si     Si        0.402812696600750    0.396826176769912    0.693760926867621  0.0000
  O1     O1        0.466691655421338    0.215824979836010    0.055774327671568  0.0000
  O1     O1        0.439566951563338    0.738535905831593    0.066854225347409  0.0000
  O1     O1        0.937924792418397    0.721989356527943    0.064945655827794  0.0000
  O3     O3        0.959842217128273    0.243788729228194    0.037166248027014  0.0000
  O1     O1        0.335312712998476    0.171084131353244    0.754447630999912  0.0000
  O3     O3        0.686786102337276    0.128592022886237    0.217030618830065  0.0000
  O1     O1        0.662350522985496    0.822666757467489    0.255542110355471  0.0000
  O1     O1        0.324428395605462    0.833257512395201    0.809637305331698  0.0000
  O1     O1        0.806867499074842    0.680797048493552    0.766160214059284  0.0000
  O1     O1        0.162262696049479    0.623920786682802    0.202465556819691  0.0000
  O1     O1        0.190643185486556    0.300128036579307    0.248054711312324  0.0000
  O3     O3        0.808888193163561    0.343175136971681    0.837331655576211  0.0000
  O3     O3        0.408259333473485    0.340611695687436    0.838731484572535  0.0000
  O1     O1        0.695075750691613    0.307703921869853    0.225620848021415  0.0000
  O1     O1        0.672970264600684    0.648199672629019    0.205198892090944  0.0000
  O1     O1        0.308305397663127    0.654738125830895    0.786087242066686  0.0000
  O1     O1        0.846483227019696    0.852659562936409    0.851351025403380  0.0000
  O1     O1        0.177237360008788    0.799635781816903    0.239329274303859  0.0000
  O1     O1        0.165301036195148    0.132710322383695    0.160730296145263  0.0000
  O3     O3        0.835208291452344    0.185586827480911    0.762577211690347  0.0000
  O1     O1        0.202169311896379    0.258325384057579    0.947832532582490  0.0000
  O3     O3        0.696494804904532    0.222175665337993    0.954364001610814  0.0000
  O1     O1        0.666997411178523    0.759486113972616    0.963457588623479  0.0000
  O1     O1        0.161723605411976    0.733699478689632    0.952903708389307  0.0000
  O1     O1        0.462729095245648    0.355262204825777    0.311094656115186  0.0000
  O3     O3        0.550597294647641    0.422247520478963    0.669171121639931  0.0000
  O1     O1        0.559089169640053    0.605333630708284    0.754638930558471  0.0000
  O1     O1        0.432850593352917    0.576346032602174    0.245883293817099  0.0000
  O1     O1        0.933479158851887    0.865652099974558    0.280124894905874  0.0000
  O1     O1        0.070625155220984    0.914070575697006    0.763405675813244  0.0000
  O1     O1        0.075801452163405    0.108633274499844    0.730344840031852  0.0000
  O3     O3        0.936664392747447    0.074193491582526    0.250870791293875  0.0000
  O3     O3        0.324446934263295    0.345400364311871    0.544948609628880  0.0000
  O1     O1        0.726417319275313    0.358218325089532    0.522615918051000  0.0000
  O1     O1        0.646549933814526    0.614539011856269    0.492453217049785  0.0000
  O1     O1        0.335226785611791    0.615248721678333    0.498053723905665  0.0000
  O1     O1        0.838216159179528    0.855671335762236    0.544042428936707  0.0000
  O1     O1        0.158743193327457    0.854451769050652    0.521776247082695  0.0000
  O1     O1        0.176358117310051    0.121218533628348    0.469083267483231  0.0000
  O3     O3        0.858788627176899    0.128171473214540    0.484009148351842  0.0000
  O1     O1        0.249489787105310    0.467818391619460    0.328008384580444  0.0000
  O1     O1        0.785068317165144    0.505289165405800    0.715478308435037  0.0000
  O3     O3        0.758659563779120    0.986845814486080    0.354457147188792  0.0000
  O1     O1        0.278930095519403    0.998857186684842    0.682775446048160  0.0000
  O3     O3        0.335693762011560    0.486801171066435    0.708986522422061  0.0000
  O1     O1        0.666367209488198    0.478066158410004    0.300363127230581  0.0000
  O1     O1        0.839461196057971    0.009756780748728    0.708183025786244  0.0000
  O1     O1        0.164205710850909    0.972948497819164    0.297558818199027  0.0000
