data_c00116.vasp
_audit_creation_method             Generated by GULP
_audit_author_name                 Salvador R. G. Balestra
_symmetry_space_group_name_H-M     'P 1             '
_symmetry_Int_Tables_number        1

loop_
_symmetry_equiv_pos_site_id
_symmetry_equiv_pos_as_xyz
_cell_length_a                       10.2585
_cell_length_b                       15.8413
_cell_length_c                        9.3012
_cell_angle_alpha                   90.6699
_cell_angle_beta                   105.4659
_cell_angle_gamma                   89.3532

loop_
_atom_site_label
_atom_site_type_symbol
_atom_site_fract_x
_atom_site_fract_y
_atom_site_fract_z
_atom_site_charge
  Ge     Ge        0.351599999999962    0.244500000000016    0.893900000000031  0.0000
  Ge     Ge        0.659334522992239    0.248770289504354    0.098932296666053  0.0000
  Ge     Ge        0.644769804558733    0.747529758281341    0.105368032600246  0.0000
  Ge     Ge        0.344504275079376    0.761262872098444    0.893196087231337  0.0000
  Ge     Ge        0.846994854244867    0.752472154769173    0.895241276920245  0.0000
  Ge     Ge        0.149781368227732    0.745453972695636    0.109037474561986  0.0000
  Ge     Ge        0.148648548671453    0.240974887800593    0.104334055333336  0.0000
  Ge     Ge        0.279214054319501    0.388540166297432    0.330236718919825  0.0000
  Ge     Ge        0.681295449042113    0.401461389488664    0.683744080210633  0.0000
  Ge     Ge        0.674032797849067    0.605785322212731    0.669342138630663  0.0000
  Ge     Ge        0.264259707477371    0.590007431023839    0.315405503987382  0.0000
  Ge     Ge        0.765714696382210    0.896088416272257    0.335787275307990  0.0000
  Ge     Ge        0.172794144212732    0.103017213294604    0.666501838245907  0.0000
  Ge     Ge        0.766351301580051    0.096748322816365    0.323420028951903  0.0000
  Ge     Ge        0.368400310762137    0.402120332694788    0.693077377363615  0.0000
  Ge     Ge        0.593702958936617    0.393062687876477    0.325078813198320  0.0000
  Ge     Ge        0.579039506256839    0.596004960295635    0.311759639810208  0.0000
  Ge     Ge        0.359966211173921    0.604784694729246    0.678325208526092  0.0000
  Ge     Ge        0.863365720495715    0.911474817360821    0.698958174392528  0.0000
  Ge     Ge        0.082580575263900    0.891301975757655    0.337289406572346  0.0000
  Ge     Ge        0.081971808770482    0.092895471963510    0.312537035011752  0.0000
  Si     Si        0.857722341342338    0.258185197832581    0.891559065983385  0.0000
  Si     Si        0.167269729705325    0.903415558046777    0.685860997386250  0.0000
  Si     Si        0.866972133029438    0.109383151880262    0.679854308719855  0.0000
  O1     O1        0.525678816345508    0.244028660872444    0.944981027681995  0.0000
  O1     O1        0.518442544820752    0.765515407833477    0.946176097837726  0.0000
  O1     O1        0.021322287818175    0.749820627942470    0.950013037312569  0.0000
  O3     O3        0.019775120084021    0.261199596635334    0.946074581107763  0.0000
  O1     O1        0.300809728861170    0.158261642608911    0.780030727945506  0.0000
  O1     O1        0.654459773605993    0.165401272037557    0.215221316885074  0.0000
  O1     O1        0.649780846810869    0.826260467939893    0.235595429933798  0.0000
  O3     O3        0.287428889907721    0.852456875662528    0.795740593768530  0.0000
  O1     O1        0.796355404960130    0.671162757976301    0.771379960009062  0.0000
  O1     O1        0.144740675235025    0.652324375166859    0.201086275520671  0.0000
  O1     O1        0.159089188159129    0.319519248442857    0.235092401089001  0.0000
  O3     O3        0.805499832737772    0.343992319237721    0.806733609742246  0.0000
  O1     O1        0.301017064978637    0.337216858179327    0.799572053432198  0.0000
  O1     O1        0.664161884437388    0.338197362623540    0.205201558068211  0.0000
  O1     O1        0.633198403791413    0.651468205688970    0.182989768731905  0.0000
  O1     O1        0.292432121684284    0.674171715445943    0.781372495709028  0.0000
  O1     O1        0.800765488938633    0.849731473415267    0.812954143848015  0.0000
  O1     O1        0.154651874305571    0.826003723478354    0.234553606122777  0.0000
  O1     O1        0.137340030965953    0.144986959859445    0.180851042789676  0.0000
  O2     O2        0.810149404450479    0.178311656598962    0.778330999272433  0.0000
  O1     O1        0.296537719977772    0.240181236789810    0.050614124064392  0.0000
  O3     O3        0.805383049052148    0.246100063781729    0.037900723986783  0.0000
  O1     O1        0.793497327367414    0.744659817868722    0.052676675042819  0.0000
  O1     O1        0.297621619853303    0.752971965191253    0.055186184609409  0.0000
  O1     O1        0.419926613623335    0.386940225660347    0.262342674834095  0.0000
  O1     O1        0.542390897062134    0.404703629106216    0.753233526017916  0.0000
  O1     O1        0.534074941248022    0.608695508461151    0.738009183655824  0.0000
  O1     O1        0.406539695130988    0.588536369311601    0.250987312012589  0.0000
  O1     O1        0.909159941594630    0.890686716992500    0.273159698869049  0.0000
  O3     O3        0.038729034687324    0.906750921269213    0.754019870130586  0.0000
  O3     O3        0.029542931230021    0.110922203728617    0.730995156226965  0.0000
  O1     O1        0.908760871400122    0.092578077883797    0.260706697773511  0.0000
  O1     O1        0.330164638031582    0.362095260965418    0.514603205484455  0.0000
  O1     O1        0.643969231036689    0.358703489280888    0.507096399158569  0.0000
  O1     O1        0.627474499088992    0.639937555476342    0.487508528758452  0.0000
  O1     O1        0.309067883513824    0.631032934499339    0.493580938605481  0.0000
  O1     O1        0.805788491180370    0.872157138579180    0.521589317509606  0.0000
  O3     O3        0.123230306956034    0.860201457879949    0.522613043713124  0.0000
  O1     O1        0.139289786858634    0.138461401820769    0.487060610342661  0.0000
  O3     O3        0.814628626888040    0.132622243993505    0.507047412718588  0.0000
  O1     O1        0.209598495728394    0.488506124860563    0.317575836507393  0.0000
  O1     O1        0.734026410090881    0.503634175510123    0.676182565280270  0.0000
  O1     O1        0.701073472361815    0.997498171365506    0.315599147845653  0.0000
  O3     O3        0.216793432084376    0.997344667462161    0.665816305795500  0.0000
  O1     O1        0.308070939995740    0.503328623007178    0.697038994693346  0.0000
  O1     O1        0.645070291061041    0.495551608302045    0.325204381615960  0.0000
  O3     O3        0.814940131337359    0.016526670324281    0.704788211034937  0.0000
  O1     O1        0.140040616413602    0.990901221332697    0.321657328350960  0.0000
