data_c00160.vasp
_audit_creation_method             Generated by GULP
_audit_author_name                 Salvador R. G. Balestra
_symmetry_space_group_name_H-M     'P 1             '
_symmetry_Int_Tables_number        1

loop_
_symmetry_equiv_pos_site_id
_symmetry_equiv_pos_as_xyz
_cell_length_a                       10.2677
_cell_length_b                       15.8127
_cell_length_c                        9.2777
_cell_angle_alpha                   89.6637
_cell_angle_beta                   105.7272
_cell_angle_gamma                   89.5385

loop_
_atom_site_label
_atom_site_type_symbol
_atom_site_fract_x
_atom_site_fract_y
_atom_site_fract_z
_atom_site_charge
  Ge     Ge        0.351599999999962    0.244500000000016    0.893900000000031  0.0000
  Ge     Ge        0.655948070806147    0.265872871919050    0.100755541934779  0.0000
  Ge     Ge        0.661096050794399    0.766103423748830    0.118959243222987  0.0000
  Ge     Ge        0.354595233780206    0.757878137606654    0.901504651894891  0.0000
  Ge     Ge        0.845687337955891    0.743529091455383    0.892205405138578  0.0000
  Ge     Ge        0.142429848239818    0.764294664307599    0.099843743153665  0.0000
  Ge     Ge        0.148602186277229    0.262923755441507    0.103505835949474  0.0000
  Ge     Ge        0.271962835260095    0.417421544364031    0.309386474296794  0.0000
  Ge     Ge        0.675131483416509    0.398597389603796    0.670552911219536  0.0000
  Ge     Ge        0.276560284707829    0.620309195455090    0.339549098476300  0.0000
  Ge     Ge        0.170769329730100    0.893959870735713    0.659335100948886  0.0000
  Ge     Ge        0.177872985392486    0.098434949804895    0.685677134336238  0.0000
  Ge     Ge        0.771824353490275    0.116633502388592    0.333559174346235  0.0000
  Ge     Ge        0.361736577527128    0.396396155896046    0.672887236424894  0.0000
  Ge     Ge        0.588141198576394    0.415375097449788    0.310644840869794  0.0000
  Ge     Ge        0.593418328355449    0.618108019477977    0.341733443924917  0.0000
  Ge     Ge        0.365802679385635    0.598438553191319    0.700085300154348  0.0000
  Ge     Ge        0.858476601580719    0.900558613264104    0.677823861788999  0.0000
  Ge     Ge        0.070273478062602    0.914247810524781    0.305471120849879  0.0000
  Ge     Ge        0.084949590676755    0.116143632850714    0.328482705199478  0.0000
  Ge     Ge        0.866470226827649    0.102566303571071    0.700060107360978  0.0000
  Si     Si        0.852653779367467    0.259569524782596    0.893327120425016  0.0000
  Si     Si        0.673851874660106    0.597351373553410    0.692367420456307  0.0000
  Si     Si        0.763074741976804    0.921160951731639    0.320898518012903  0.0000
  O1     O1        0.525043462421919    0.249262809581336    0.946483868137520  0.0000
  O1     O1        0.528339613084105    0.763635099409516    0.962136768638471  0.0000
  O1     O1        0.019602141358353    0.737802185693470    0.941733444301649  0.0000
  O3     O3        0.015814113020110    0.259691972381067    0.943346546399707  0.0000
  O1     O1        0.306550487366794    0.149445746649184    0.808583177128509  0.0000
  O1     O1        0.656931314350817    0.187312538223763    0.230490749726598  0.0000
  O3     O3        0.656626966319596    0.860459593211747    0.213260146660330  0.0000
  O1     O1        0.299173289437353    0.832021688884426    0.763056129124114  0.0000
  O3     O3        0.787703705258136    0.649008031719418    0.809032427636259  0.0000
  O1     O1        0.157845952960454    0.689896540847752    0.238842705659220  0.0000
  O1     O1        0.149119504001565    0.356287253735020    0.197314400412134  0.0000
  O3     O3        0.804149328344691    0.336964858456252    0.778486912052522  0.0000
  O1     O1        0.290982932516611    0.325887384621051    0.768086172511535  0.0000
  O1     O1        0.650094357833681    0.361463157414194    0.184266057583983  0.0000
  O1     O1        0.666680542820699    0.684933463707004    0.243352480213758  0.0000
  O1     O1        0.314004122539219    0.658770486397863    0.826103291869940  0.0000
  O1     O1        0.790255332800858    0.827658355154904    0.771941795079341  0.0000
  O1     O1        0.107513020651845    0.861546671137049    0.162122581850591  0.0000
  O1     O1        0.155892505264782    0.178506479435178    0.220907668249374  0.0000
  O3     O3        0.804346739042994    0.171116936707312    0.810832973415143  0.0000
  O1     O1        0.296090037215484    0.257226248113833    0.049712423990337  0.0000
  O3     O3        0.802853129646692    0.267409412845590    0.041721217845622  0.0000
  O1     O1        0.804272049258307    0.758244671830935    0.057492661956483  0.0000
  O1     O1        0.292745924387382    0.772286753205565    0.052351653845333  0.0000
  O1     O1        0.414673740504746    0.419461547533175    0.246306066598871  0.0000
  O1     O1        0.536272700114684    0.390685908226643    0.737461041187190  0.0000
  O3     O3        0.541328460244749    0.591777436009650    0.752136427284922  0.0000
  O1     O1        0.420074581436993    0.625362195749897    0.277373430298737  0.0000
  O3     O3        0.896894272864212    0.928830105953866    0.263528376385512  0.0000
  O1     O1        0.032249845597343    0.889503760063148    0.730225654546742  0.0000
  O1     O1        0.039661792259557    0.096618952724223    0.756718847648934  0.0000
  O1     O1        0.911547981487301    0.123128837058490    0.266586680767748  0.0000
  O1     O1        0.319053744448299    0.373604382620842    0.486230963356399  0.0000
  O1     O1        0.637129759575350    0.369248045457332    0.486116058967649  0.0000
  O3     O3        0.636138313393987    0.643149625135419    0.530642560991257  0.0000
  O1     O1        0.313300468836536    0.644552691439355    0.525797910967692  0.0000
  O3     O3        0.805145638613547    0.882025957531816    0.487573897182212  0.0000
  O1     O1        0.127884319330446    0.862946484248178    0.474670115341467  0.0000
  O1     O1        0.134349869760402    0.146881308188987    0.512788498274472  0.0000
  O1     O1        0.816125674898169    0.140868623062657    0.519991042916648  0.0000
  O1     O1        0.215011479516395    0.518838030810049    0.317512978986044  0.0000
  O3     O3        0.727129846796057    0.503025703813733    0.676138605465337  0.0000
  O3     O3        0.703803101438323    0.015478678893586    0.320721764120957  0.0000
  O1     O1        0.225465701482062    0.996350291301361    0.663613330979808  0.0000
  O1     O1        0.306927301857167    0.497450119463123    0.696541427605850  0.0000
  O1     O1        0.646391960610375    0.517207465122102    0.320854641474117  0.0000
  O1     O1        0.810140701327775    0.001277382453412    0.711763276187288  0.0000
  O1     O1        0.137460971053468    0.013603518854677    0.316934969733553  0.0000
