data_c00159.vasp
_audit_creation_method             Generated by GULP
_audit_author_name                 Salvador R. G. Balestra
_symmetry_space_group_name_H-M     'P 1             '
_symmetry_Int_Tables_number        1

loop_
_symmetry_equiv_pos_site_id
_symmetry_equiv_pos_as_xyz
_cell_length_a                       10.2447
_cell_length_b                       15.8381
_cell_length_c                        9.2916
_cell_angle_alpha                   90.8643
_cell_angle_beta                   105.9965
_cell_angle_gamma                   89.6980

loop_
_atom_site_label
_atom_site_type_symbol
_atom_site_fract_x
_atom_site_fract_y
_atom_site_fract_z
_atom_site_charge
  Ge     Ge        0.351599999999962    0.244500000000016    0.893900000000031  0.0000
  Ge     Ge        0.660112942291637    0.248528195935130    0.104854355753285  0.0000
  Ge     Ge        0.640773615086498    0.743743353682450    0.108982261931982  0.0000
  Ge     Ge        0.338335814120692    0.759727424327141    0.893619457696376  0.0000
  Ge     Ge        0.835382234568718    0.749897099436518    0.892537075341356  0.0000
  Ge     Ge        0.139983938311533    0.738689272600733    0.104501786647063  0.0000
  Ge     Ge        0.148937650985215    0.235266510965778    0.104648287906951  0.0000
  Ge     Ge        0.282083425017819    0.383085257373928    0.335301397346845  0.0000
  Ge     Ge        0.678863079648513    0.407306375036582    0.698611953145757  0.0000
  Ge     Ge        0.259146249914100    0.584354109479938    0.310493689376632  0.0000
  Ge     Ge        0.761985767175965    0.892857026148263    0.339151364943736  0.0000
  Ge     Ge        0.176524248133922    0.103070566846762    0.666156586898829  0.0000
  Ge     Ge        0.764346172770681    0.092978268102237    0.317862068111693  0.0000
  Ge     Ge        0.366256954631115    0.402988599407149    0.699821143292806  0.0000
  Ge     Ge        0.597740795359642    0.390277225134749    0.337916992604233  0.0000
  Ge     Ge        0.577837349723403    0.591783025745614    0.317423599340779  0.0000
  Ge     Ge        0.352136612908171    0.605109861477789    0.672267708190297  0.0000
  Ge     Ge        0.859264590314522    0.910875936941535    0.702152341683320  0.0000
  Ge     Ge        0.078236933814151    0.885536254353211    0.337621551144231  0.0000
  Ge     Ge        0.080538790072833    0.085844695202039    0.308491406432058  0.0000
  Ge     Ge        0.865448873294300    0.114335335167847    0.682328577021520  0.0000
  Si     Si        0.855905461784036    0.264643134176603    0.898886014789574  0.0000
  Si     Si        0.661818390308338    0.606535808664598    0.669614764096489  0.0000
  Si     Si        0.164595570154307    0.903466643787869    0.688266879837244  0.0000
  O1     O1        0.526037936593066    0.252459090956106    0.949841427229907  0.0000
  O1     O1        0.512912580259262    0.760405927494947    0.949206192232957  0.0000
  O1     O1        0.010417616938251    0.743823598056487    0.944380246400379  0.0000
  O3     O3        0.019026097536508    0.260412973426351    0.948157847362750  0.0000
  O1     O1        0.310072139920469    0.160078459448560    0.771928580332919  0.0000
  O1     O1        0.651174753741016    0.157090990870042    0.199599455465076  0.0000
  O1     O1        0.643844577308116    0.823716678798913    0.236769017967807  0.0000
  O3     O3        0.283781506252374    0.852442343806600    0.800693483806294  0.0000
  O3     O3        0.774514727625659    0.670076058833311    0.764292854426059  0.0000
  O1     O1        0.138624955964883    0.642985573025450    0.189427104823953  0.0000
  O1     O1        0.164498081083082    0.310871134506278    0.242096471227293  0.0000
  O3     O3        0.808980712389709    0.353983195509362    0.822557564815007  0.0000
  O1     O1        0.296262195294151    0.337814306868975    0.803388163078346  0.0000
  O1     O1        0.673920639584811    0.330194102435483    0.230768400271192  0.0000
  O1     O1        0.634937190244051    0.649360558786816    0.194091855860190  0.0000
  O1     O1        0.285997693993264    0.674200888627719    0.775668309475143  0.0000
  O1     O1        0.796666622651663    0.848430074712265    0.815887734572219  0.0000
  O1     O1        0.145022845233822    0.815996025085487    0.236943854301023  0.0000
  O1     O1        0.132500210371127    0.138083809568484    0.174304878927893  0.0000
  O3     O3        0.798850655395956    0.188509749614785    0.780761871329043  0.0000
  O1     O1        0.295350573507936    0.233051601748257    0.048410133927047  0.0000
  O3     O3        0.807835815373944    0.251442344042503    0.047415613928909  0.0000
  O1     O1        0.787916480043926    0.741378664583070    0.053157067412696  0.0000
  O1     O1        0.288423883568394    0.749791545941326    0.052883429909623  0.0000
  O1     O1        0.423690051953320    0.381300258711147    0.269247610124100  0.0000
  O1     O1        0.540933801987729    0.405989800786257    0.767913365266841  0.0000
  O3     O3        0.528936156510134    0.608620743975989    0.730315170026131  0.0000
  O1     O1        0.404962175560209    0.584225152686435    0.252753111391773  0.0000
  O1     O1        0.904110462111364    0.886413499468776    0.274701015120160  0.0000
  O3     O3        0.036018308903254    0.910140037227652    0.755536157572998  0.0000
  O1     O1        0.040166451580131    0.117853018358536    0.737653736506062  0.0000
  O1     O1        0.906793144206841    0.082776934106208    0.256162139858717  0.0000
  O1     O1        0.334366972298704    0.361125728028573    0.521826367356677  0.0000
  O1     O1        0.645610814193404    0.362034503605233    0.523495689880090  0.0000
  O3     O3        0.619128508148487    0.634882901414892    0.497234060649804  0.0000
  O1     O1        0.295022223995807    0.629016576045622    0.487124815743893  0.0000
  O1     O1        0.803582198517243    0.868853742452705    0.525111679461935  0.0000
  O3     O3        0.120201927372319    0.858507026722065    0.525585896602897  0.0000
  O1     O1        0.136756364852741    0.133439615201523    0.482436765658560  0.0000
  O1     O1        0.810997081482856    0.136253044616877    0.495677931510904  0.0000
  O1     O1        0.208952335963139    0.481894589791159    0.315473753904029  0.0000
  O3     O3        0.722153503037171    0.511994260803204    0.682301018659925  0.0000
  O1     O1        0.698609576136478    0.994187109754075    0.322416268568072  0.0000
  O3     O3        0.216877278041203    0.996779781224725    0.667564219460544  0.0000
  O1     O1        0.303735460401673    0.503554161710123    0.697630628054077  0.0000
  O1     O1        0.646114575498046    0.492755634367489    0.325761022564604  0.0000
  O1     O1        0.811075048658606    0.014394392803978    0.709817132148421  0.0000
  O1     O1        0.139272036000204    0.983994522175628    0.317301737796476  0.0000
