data_c00113.vasp
_audit_creation_method             Generated by GULP
_audit_author_name                 Salvador R. G. Balestra
_symmetry_space_group_name_H-M     'P 1             '
_symmetry_Int_Tables_number        1

loop_
_symmetry_equiv_pos_site_id
_symmetry_equiv_pos_as_xyz
_cell_length_a                       10.2938
_cell_length_b                       15.8255
_cell_length_c                        9.2200
_cell_angle_alpha                   89.5630
_cell_angle_beta                   105.5989
_cell_angle_gamma                   89.2290

loop_
_atom_site_label
_atom_site_type_symbol
_atom_site_fract_x
_atom_site_fract_y
_atom_site_fract_z
_atom_site_charge
  Ge     Ge        0.351599999999962    0.244500000000016    0.893900000000031  0.0000
  Ge     Ge        0.653174533868240    0.262401745500215    0.105594458728493  0.0000
  Ge     Ge        0.685248390281540    0.755054399356087    0.114951154227302  0.0000
  Ge     Ge        0.383154268070741    0.762071071808759    0.896902259303496  0.0000
  Ge     Ge        0.883610405182509    0.737653045422993    0.902588691530089  0.0000
  Ge     Ge        0.180486058526458    0.771765277501818    0.106393915481381  0.0000
  Ge     Ge        0.151834207949375    0.268808546777131    0.107914857313766  0.0000
  Ge     Ge        0.279449763207472    0.422355323998653    0.310866889188498  0.0000
  Ge     Ge        0.683346260027248    0.388833416985293    0.662844938811852  0.0000
  Ge     Ge        0.706022061928560    0.590176790474984    0.697620728012725  0.0000
  Ge     Ge        0.304951264990557    0.623283164278936    0.339906451852054  0.0000
  Ge     Ge        0.788216540594803    0.914645443405034    0.319521295175269  0.0000
  Ge     Ge        0.197614570767049    0.900650750955047    0.666265124651066  0.0000
  Ge     Ge        0.780129783744757    0.115126775317428    0.344603571006264  0.0000
  Ge     Ge        0.368564091226729    0.397831175504131    0.673155798298612  0.0000
  Ge     Ge        0.614245423893610    0.608849187119699    0.334953737595420  0.0000
  Ge     Ge        0.394436833873839    0.599109420675554    0.706108190556948  0.0000
  Ge     Ge        0.891363505401571    0.894269300008910    0.687970472695344  0.0000
  Ge     Ge        0.098476995032373    0.921190410960208    0.305351328237962  0.0000
  Ge     Ge        0.094363274000715    0.121658552861994    0.340210480785966  0.0000
  Ge     Ge        0.881455040273233    0.096709811804232    0.710424500901290  0.0000
  Si     Si        0.854555460276267    0.251747353804056    0.900039529641776  0.0000
  Si     Si        0.184316592002206    0.100068527521603    0.691536884781054  0.0000
  Si     Si        0.590220076101932    0.410629993029455    0.310752191578133  0.0000
  O1     O1        0.524995734976333    0.242560257248088    0.950333279649521  0.0000
  O1     O1        0.556910013481901    0.757318635446414    0.952603402270106  0.0000
  O1     O1        0.056694528779706    0.741208790557062    0.952341436806053  0.0000
  O3     O3        0.016144046845927    0.261935423670662    0.952826862950589  0.0000
  O3     O3        0.302432173975138    0.150773437205338    0.802525163020680  0.0000
  O1     O1        0.663888278586068    0.185336473964436    0.239455573223451  0.0000
  O1     O1        0.675776127382592    0.845286655188394    0.215325407870147  0.0000
  O1     O1        0.333109715258913    0.842280406128416    0.766367158347470  0.0000
  O1     O1        0.833765691925274    0.643367249466644    0.817826829817811  0.0000
  O1     O1        0.192813801431540    0.699250251392691    0.249593550834392  0.0000
  O1     O1        0.158745589237349    0.367561027046842    0.185685397993751  0.0000
  O3     O3        0.798648563747588    0.315363001233088    0.760845631290682  0.0000
  O1     O1        0.299278907804049    0.329874390810454    0.775069258237394  0.0000
  O3     O3        0.637436234846931    0.359365665824515    0.184590645529830  0.0000
  O1     O1        0.690109296256691    0.666831421530905    0.226121763848866  0.0000
  O1     O1        0.331258857254334    0.666108199679779    0.815579036464924  0.0000
  O1     O1        0.822538324391762    0.820894562373965    0.779956712298964  0.0000
  O1     O1        0.152032528486850    0.869794876625687    0.169328507656763  0.0000
  O1     O1        0.160107888190028    0.194784560827941    0.245925812721579  0.0000
  O3     O3        0.825742322703285    0.156682325372453    0.838522489375873  0.0000
  O1     O1        0.296296939410727    0.253744287547264    0.051049173467147  0.0000
  O3     O3        0.797966348269542    0.268469358444392    0.042512161200837  0.0000
  O1     O1        0.834102214436347    0.751303521301194    0.064141384439517  0.0000
  O1     O1        0.328306159840501    0.776798980575861    0.053768596631704  0.0000
  O3     O3        0.429034646450877    0.422174849362975    0.257919274411105  0.0000
  O1     O1        0.542232813348011    0.388766663151354    0.727524650465739  0.0000
  O1     O1        0.567602746340439    0.590486865150827    0.768151376110130  0.0000
  O1     O1        0.443153365477191    0.624252144327245    0.267710037346786  0.0000
  O1     O1        0.925425135446709    0.924768684149309    0.248868226677236  0.0000
  O1     O1        0.065759754530974    0.886967443604096    0.744843039195057  0.0000
  O3     O3        0.056442044594917    0.093821275011285    0.759950719613765  0.0000
  O1     O1        0.921459458767504    0.122300693696100    0.279996984554490  0.0000
  O1     O1        0.309939131096218    0.375906879502969    0.485666596841835  0.0000
  O3     O3        0.635714759361903    0.363611523334645    0.472802024543452  0.0000
  O1     O1        0.667233642098679    0.636369054595139    0.521234212894344  0.0000
  O1     O1        0.359952320146085    0.642713511098967    0.528000172396781  0.0000
  O1     O1        0.846448459048090    0.874693862016880    0.499065326054175  0.0000
  O1     O1        0.154477329753051    0.872940493900662    0.479626193975714  0.0000
  O3     O3        0.136426849370539    0.146506579309326    0.529937466944908  0.0000
  O1     O1        0.817868225014499    0.137987094375767    0.532927374295567  0.0000
  O1     O1        0.230599851993937    0.525628571075324    0.316575843843605  0.0000
  O1     O1        0.754433781640083    0.486524037263742    0.685524311717727  0.0000
  O1     O1        0.719344172043567    0.013745324208343    0.323335645600265  0.0000
  O3     O3        0.237832158106531    0.006769110487300    0.668954651821605  0.0000
  O1     O1        0.325597054218315    0.500989636986086    0.701437734047402  0.0000
  O3     O3        0.656069197435921    0.502607076448288    0.327612584361733  0.0000
  O1     O1        0.834203136816917    0.993867580415765    0.717878165792155  0.0000
  O1     O1        0.155005202162936    0.023223812362590    0.314845664730985  0.0000
