data_c00189.vasp
_audit_creation_method             Generated by GULP
_audit_author_name                 Salvador R. G. Balestra
_symmetry_space_group_name_H-M     'P 1             '
_symmetry_Int_Tables_number        1

loop_
_symmetry_equiv_pos_site_id
_symmetry_equiv_pos_as_xyz
_cell_length_a                       10.2594
_cell_length_b                       15.7947
_cell_length_c                        9.2664
_cell_angle_alpha                   89.4209
_cell_angle_beta                   105.7603
_cell_angle_gamma                   89.6319

loop_
_atom_site_label
_atom_site_type_symbol
_atom_site_fract_x
_atom_site_fract_y
_atom_site_fract_z
_atom_site_charge
  Ge     Ge        0.351599999999962    0.244500000000016    0.893900000000031  0.0000
  Ge     Ge        0.652134165091488    0.276203483766207    0.099878171584247  0.0000
  Ge     Ge        0.641619716086926    0.770413868080325    0.114061816923963  0.0000
  Ge     Ge        0.337744242212514    0.755717168657684    0.896610874319973  0.0000
  Ge     Ge        0.830485341083623    0.748758514629924    0.893204102903936  0.0000
  Ge     Ge        0.130372733586379    0.764817016610446    0.100614027536734  0.0000
  Ge     Ge        0.152894942632709    0.269398487241193    0.108775071779947  0.0000
  Ge     Ge        0.671353217212387    0.402172359975216    0.666893767702998  0.0000
  Ge     Ge        0.264709897912486    0.619436061992215    0.336576154786297  0.0000
  Ge     Ge        0.747075308320883    0.929582677107691    0.313079985767333  0.0000
  Ge     Ge        0.158071843656946    0.896168705754179    0.659421289931706  0.0000
  Ge     Ge        0.176410473656636    0.099781732935713    0.689348724570024  0.0000
  Ge     Ge        0.768897104041667    0.129153862428204    0.341359635279886  0.0000
  Ge     Ge        0.356731112665924    0.396076857239473    0.668706342091893  0.0000
  Ge     Ge        0.579484164209910    0.422121375541356    0.308862856675270  0.0000
  Ge     Ge        0.580819102827365    0.624343419016104    0.342812194043621  0.0000
  Ge     Ge        0.351226334820338    0.596849245279856    0.697734333182459  0.0000
  Ge     Ge        0.847401391309522    0.906310981985070    0.679606976054633  0.0000
  Ge     Ge        0.060945870589584    0.919061020066478    0.302568185428215  0.0000
  Ge     Ge        0.083003743394831    0.120914217399499    0.331672838367741  0.0000
  Ge     Ge        0.865768293113482    0.108957408122236    0.707909899002792  0.0000
  Si     Si        0.854100128812671    0.268050062452557    0.898524079648343  0.0000
  Si     Si        0.270642619750274    0.420990995552449    0.313467824538340  0.0000
  Si     Si        0.660138275765315    0.601075316688679    0.693340652501198  0.0000
  O1     O1        0.525034816576840    0.249741256530216    0.946934405884713  0.0000
  O1     O1        0.512139826438862    0.759439368718033    0.955657392004024  0.0000
  O1     O1        0.004553447136016    0.742519321525573    0.942546826679680  0.0000
  O3     O3        0.017068930841595    0.271326428418536    0.950828979355921  0.0000
  O1     O1        0.306931503985854    0.147933834877180    0.815263295614613  0.0000
  O1     O1        0.660205247759262    0.204818867589328    0.243091725467103  0.0000
  O1     O1        0.630498320225156    0.866434473101704    0.197186114517897  0.0000
  O1     O1        0.283998906261454    0.830630600867685    0.758286241381408  0.0000
  O3     O3        0.771575832313179    0.654202499682297    0.810222447959961  0.0000
  O1     O1        0.142216922280550    0.686224179506779    0.233753400777493  0.0000
  O3     O3        0.158412308069202    0.362842435206950    0.206933863097489  0.0000
  O3     O3        0.802355274599611    0.341849414549519    0.775866738335342  0.0000
  O1     O1        0.288106006551556    0.321908178973230    0.759537203493776  0.0000
  O1     O1        0.629684087303651    0.373786254805775    0.168994321687788  0.0000
  O1     O1        0.655156767567790    0.693478342768961    0.249367151451495  0.0000
  O1     O1        0.295490753477830    0.656999982383613    0.820849685054058  0.0000
  O1     O1        0.777335076987507    0.834429605868815    0.775142546442885  0.0000
  O1     O1        0.108421546943279    0.862463584368467    0.169158784241832  0.0000
  O1     O1        0.152862730528308    0.184085753622655    0.222926064230424  0.0000
  O3     O3        0.809714653852146    0.176912671155339    0.824190012206728  0.0000
  O1     O1        0.297154737789973    0.260767205426390    0.050178072472000  0.0000
  O3     O3        0.800681051781858    0.279222544869058    0.044417961723671  0.0000
  O1     O1        0.788096009428926    0.763702978706583    0.057499348736432  0.0000
  O1     O1        0.279514584068041    0.770750772594973    0.049387101222632  0.0000
  O3     O3        0.403906788345721    0.427081466445761    0.254406929548673  0.0000
  O1     O1        0.531291220479577    0.389617709441592    0.731218015142182  0.0000
  O3     O3        0.527091719569237    0.591521137901986    0.751243385855973  0.0000
  O1     O1        0.407352232014751    0.631502246707899    0.275288058788919  0.0000
  O1     O1        0.888877604108461    0.933309006622874    0.248594954791263  0.0000
  O1     O1        0.021620603864366    0.895015528834174    0.733793376382871  0.0000
  O1     O1        0.038847500178196    0.100460295358135    0.761975652394333  0.0000
  O1     O1        0.909353558991848    0.128187707919626    0.274026557554905  0.0000
  O3     O3        0.316114467100641    0.378420433997378    0.478300290394555  0.0000
  O1     O1        0.638768317061656    0.373811317781436    0.481756707690904  0.0000
  O3     O3        0.620413919877524    0.648047989366376    0.532119822672104  0.0000
  O1     O1        0.297339242483032    0.642770720861894    0.522802099164470  0.0000
  O1     O1        0.792132831275544    0.887228339747062    0.491545097889521  0.0000
  O1     O1        0.108091922809276    0.867849821833279    0.473961596762917  0.0000
  O1     O1        0.135775213139628    0.149643871816178    0.517031818708832  0.0000
  O1     O1        0.816308941840921    0.150210067151370    0.529094736952738  0.0000
  O3     O3        0.211782369126246    0.514651292925420    0.320380078953850  0.0000
  O3     O3        0.717471543707464    0.507844832554611    0.675485258066023  0.0000
  O1     O1        0.691442067856281    0.031704337117602    0.318282636552123  0.0000
  O1     O1        0.219953517808991    0.997257409918950    0.665561459415911  0.0000
  O1     O1        0.298089389696039    0.494562798079528    0.699317318250547  0.0000
  O1     O1        0.635967967719009    0.524250892955946    0.320292264446496  0.0000
  O1     O1        0.803136390831886    0.008643566109126    0.712701281572846  0.0000
  O1     O1        0.132241197593523    0.017857706226568    0.316709263045504  0.0000
