data_c00178.vasp
_audit_creation_method             Generated by GULP
_audit_author_name                 Salvador R. G. Balestra
_symmetry_space_group_name_H-M     'P 1             '
_symmetry_Int_Tables_number        1

loop_
_symmetry_equiv_pos_site_id
_symmetry_equiv_pos_as_xyz
_cell_length_a                       10.2466
_cell_length_b                       15.7926
_cell_length_c                        9.2642
_cell_angle_alpha                   89.6676
_cell_angle_beta                   105.6581
_cell_angle_gamma                   89.3777

loop_
_atom_site_label
_atom_site_type_symbol
_atom_site_fract_x
_atom_site_fract_y
_atom_site_fract_z
_atom_site_charge
  Ge     Ge        0.351599999999962    0.244500000000016    0.893900000000031  0.0000
  Ge     Ge        0.658943890514598    0.258450412161293    0.108856459994847  0.0000
  Ge     Ge        0.635437192766788    0.768676655612129    0.111102867679258  0.0000
  Ge     Ge        0.334029566752366    0.740441072397045    0.906986216607267  0.0000
  Ge     Ge        0.834087918236227    0.749713343421912    0.901431504900727  0.0000
  Ge     Ge        0.133752149164878    0.752164376282726    0.122795764222965  0.0000
  Ge     Ge        0.154437084111248    0.264168344218575    0.109461987498720  0.0000
  Ge     Ge        0.724704232861326    0.389044430192841    0.674021181067356  0.0000
  Ge     Ge        0.726075662725075    0.590823321735528    0.700879352423950  0.0000
  Ge     Ge        0.317570514273704    0.609217791439802    0.347060760715588  0.0000
  Ge     Ge        0.818157088990039    0.912894003382894    0.320810992486678  0.0000
  Ge     Ge        0.216752533383665    0.888168388355409    0.669926955933972  0.0000
  Ge     Ge        0.244498282114437    0.086395440029645    0.695065919904603  0.0000
  Ge     Ge        0.828052884646880    0.117612412958183    0.348489346862456  0.0000
  Ge     Ge        0.406262975727256    0.389404267553116    0.664371481335574  0.0000
  Ge     Ge        0.635807554689888    0.413348254917095    0.311937456069640  0.0000
  Ge     Ge        0.628517311454247    0.616504895521542    0.336911371187377  0.0000
  Ge     Ge        0.411199020173127    0.590091607110110    0.707109512753156  0.0000
  Ge     Ge        0.903333530186964    0.897113963778283    0.678593443222096  0.0000
  Ge     Ge        0.141145901330094    0.110265231404023    0.332262402394403  0.0000
  Ge     Ge        0.926214385056897    0.098965455570190    0.704672791916591  0.0000
  Si     Si        0.859935242598442    0.247531481126747    0.906354965475870  0.0000
  Si     Si        0.327093129827156    0.409509997374240    0.313845060534576  0.0000
  Si     Si        0.123883968439401    0.911530696561126    0.311471099569914  0.0000
  O1     O1        0.484694466153909    0.258732756392945    0.046049294133416  0.0000
  O1     O1        0.461263357606004    0.768799140636969    0.059953010460175  0.0000
  O1     O1        0.959820840075387    0.752095242888972    0.065592289992806  0.0000
  O3     O3        0.978313554249339    0.271703746286843    0.052313686120294  0.0000
  O1     O1        0.361599401779581    0.146951116836097    0.814904715863300  0.0000
  O1     O1        0.701794901221889    0.180485425521621    0.241924730785235  0.0000
  O1     O1        0.692275642731192    0.863625354888673    0.191525343781797  0.0000
  O1     O1        0.323764990355539    0.809518346138437    0.759321653933704  0.0000
  O1     O1        0.843611069752726    0.656385173134617    0.809276526471850  0.0000
  O1     O1        0.185133056798723    0.670104398940226    0.247083052571072  0.0000
  O3     O3        0.211140462175662    0.357436546214936    0.200075183023788  0.0000
  O3     O3        0.843778451460266    0.317311996286583    0.775295573334741  0.0000
  O1     O1        0.331803600738456    0.319008575883445    0.754398397181979  0.0000
  O1     O1        0.699974098069490    0.355334639456871    0.191259719619989  0.0000
  O1     O1        0.695606702464675    0.688486787403058    0.240220155023861  0.0000
  O1     O1        0.356002154825503    0.641358943379198    0.842138870662318  0.0000
  O1     O1        0.831624721481823    0.835099131391850    0.786595575462713  0.0000
  O3     O3        0.183674194418436    0.848748266519602    0.209412164601043  0.0000
  O1     O1        0.206813993284422    0.178237784890689    0.226829324918896  0.0000
  O3     O3        0.887110103822910    0.156003086941079    0.846123129477649  0.0000
  O1     O1        0.205237031718555    0.250988788837916    0.950965102076048  0.0000
  O3     O3        0.720908720384437    0.243650685850437    0.955958441179896  0.0000
  O1     O1        0.683179114306105    0.752200465013820    0.950260786917015  0.0000
  O1     O1        0.187982548542842    0.741870170159149    0.964733932421632  0.0000
  O3     O3        0.459378619381029    0.415747882027006    0.252821898471848  0.0000
  O1     O1        0.580193485274878    0.385066529936883    0.733757512740242  0.0000
  O1     O1        0.584686971213968    0.583746729246363    0.766225522793462  0.0000
  O1     O1        0.453753516954088    0.622897673745623    0.275083930057628  0.0000
  O3     O3        0.960799274323816    0.916588675946762    0.253951034558716  0.0000
  O1     O1        0.077166227209262    0.887959147036084    0.739337361790372  0.0000
  O1     O1        0.097441185873699    0.082647810266805    0.750560803579231  0.0000
  O1     O1        0.968498157193494    0.124574154838833    0.281363110237650  0.0000
  O3     O3        0.369497776395484    0.364117912477168    0.475959152816934  0.0000
  O1     O1        0.688219744371380    0.367088000950318    0.486658675032096  0.0000
  O1     O1        0.673983940663440    0.636003379808889    0.524891165122328  0.0000
  O1     O1        0.358667211220173    0.637288636814657    0.532564129605829  0.0000
  O1     O1        0.850851506514628    0.865618325035821    0.494071287848176  0.0000
  O3     O3        0.159837727732383    0.873016958474577    0.479085492410610  0.0000
  O1     O1        0.206580155544361    0.130857692338979    0.518385861199266  0.0000
  O1     O1        0.871483896263490    0.148508020083981    0.533335858369887  0.0000
  O3     O3        0.272703021296048    0.503357750282611    0.334247468012375  0.0000
  O1     O1        0.788866202732427    0.490154099597413    0.695857456992111  0.0000
  O1     O1        0.771666576183635    0.015777408266867    0.341746180547043  0.0000
  O1     O1        0.299164715548403    0.983439258711609    0.696584411503898  0.0000
  O1     O1        0.349364319546840    0.488865954928100    0.689771330763930  0.0000
  O1     O1        0.686651852687620    0.515979324372995    0.313545694334457  0.0000
  O1     O1        0.854548686658000    0.000523260286748    0.693509638154784  0.0000
  O3     O3        0.183017824998724    0.004877290206089    0.307818622528933  0.0000
