data_c00196.vasp
_audit_creation_method             Generated by GULP
_audit_author_name                 Salvador R. G. Balestra
_symmetry_space_group_name_H-M     'P 1             '
_symmetry_Int_Tables_number        1

loop_
_symmetry_equiv_pos_site_id
_symmetry_equiv_pos_as_xyz
_cell_length_a                       10.1904
_cell_length_b                       15.8492
_cell_length_c                        9.3140
_cell_angle_alpha                   90.2453
_cell_angle_beta                   105.9099
_cell_angle_gamma                   90.1766

loop_
_atom_site_label
_atom_site_type_symbol
_atom_site_fract_x
_atom_site_fract_y
_atom_site_fract_z
_atom_site_charge
  Ge     Ge        0.351599999999962    0.244500000000016    0.893900000000031  0.0000
  Ge     Ge        0.661334838210208    0.225676936073970    0.101098001858194  0.0000
  Ge     Ge        0.720301726764307    0.727565030607479    0.093026336234779  0.0000
  Ge     Ge        0.419274810863086    0.750718282432502    0.880636179698064  0.0000
  Ge     Ge        0.923695917452134    0.731195637649996    0.885274181921379  0.0000
  Ge     Ge        0.228360686408154    0.740034698480859    0.100682466414777  0.0000
  Ge     Ge        0.323050570470871    0.380037542707427    0.317590130862776  0.0000
  Ge     Ge        0.730769113685838    0.383050751599979    0.680338751610485  0.0000
  Ge     Ge        0.746018244694953    0.586122084324058    0.662537549070043  0.0000
  Ge     Ge        0.332480398235262    0.581955456137644    0.306802714032445  0.0000
  Ge     Ge        0.845137580319654    0.875996639839423    0.324039607032189  0.0000
  Ge     Ge        0.235962501630755    0.094277645024325    0.667622928173870  0.0000
  Ge     Ge        0.825780860260238    0.078577028876919    0.315040129938883  0.0000
  Ge     Ge        0.413778161866545    0.391563226446130    0.678719284846132  0.0000
  Ge     Ge        0.642104719088667    0.374985623242014    0.319906132383747  0.0000
  Ge     Ge        0.648294030467148    0.577328826810769    0.301173915193432  0.0000
  Ge     Ge        0.429406429979706    0.594918382389823    0.666955213994984  0.0000
  Ge     Ge        0.934937286660215    0.888060340886557    0.681528166885857  0.0000
  Ge     Ge        0.161041456469493    0.887382789976212    0.320935640141218  0.0000
  Ge     Ge        0.143807584873572    0.088807007631387    0.307188575464073  0.0000
  Ge     Ge        0.919483848755325    0.091343762377789    0.674087104641222  0.0000
  Si     Si        0.149199085000971    0.240283810231316    0.096846428391999  0.0000
  Si     Si        0.854846625100159    0.234123468609043    0.889081818129891  0.0000
  Si     Si        0.244677871720837    0.895790536983110    0.675881807125342  0.0000
  O1     O1        0.487200274342668    0.236124522051553    0.046502125795704  0.0000
  O1     O1        0.594983909662587    0.748000849063158    0.932362306322343  0.0000
  O1     O1        0.099083482821246    0.739840212934939    0.939685968122690  0.0000
  O2     O2        0.983347660282555    0.236811242562378    0.036961371037042  0.0000
  O1     O1        0.354373477908098    0.160822883031083    0.776299685484802  0.0000
  O1     O1        0.698571280316912    0.131799573062679    0.191817698083870  0.0000
  O1     O1        0.727152954593912    0.807083651774507    0.220556347928113  0.0000
  O3     O3        0.364521914787724    0.842426972441893    0.783311096048117  0.0000
  O1     O1        0.876750280646425    0.646551487989557    0.767433954950866  0.0000
  O1     O1        0.217492450438369    0.648922003907094    0.196359368776493  0.0000
  O3     O3        0.192722100627233    0.320006972435415    0.205781671980075  0.0000
  O3     O3        0.852596174505851    0.316858043134910    0.789855091561630  0.0000
  O1     O1        0.345318037689405    0.337077216862448    0.798269030667608  0.0000
  O1     O1        0.717972052829535    0.308032120125693    0.222644197680669  0.0000
  O1     O1        0.706028678918434    0.632124403336281    0.173356616698847  0.0000
  O1     O1        0.362101682491108    0.664430459781865    0.768241142300407  0.0000
  O1     O1        0.870806640348402    0.824384182132123    0.792980490583104  0.0000
  O1     O1        0.236021456403425    0.824679443844686    0.218406514804479  0.0000
  O3     O3        0.200499257076970    0.156029772373824    0.191006930746629  0.0000
  O3     O3        0.851386461957350    0.150775159830379    0.790719731544550  0.0000
  O3     O3        0.204777171548773    0.244544257247839    0.953353346128556  0.0000
  O3     O3        0.718555954075778    0.232222777113134    0.943825970287042  0.0000
  O1     O1        0.870813506050190    0.722967852783782    0.042893001018104  0.0000
  O1     O1        0.376318770604794    0.744553983622442    0.045211245841627  0.0000
  O1     O1        0.465548894521485    0.375234556865953    0.254180498880627  0.0000
  O1     O1        0.588841253537927    0.389271893248378    0.745195397767558  0.0000
  O1     O1        0.605460224843295    0.594297836890062    0.730171841366340  0.0000
  O1     O1        0.473803443082561    0.575483159056565    0.240166424039992  0.0000
  O1     O1        0.986641806073918    0.878520723507307    0.256309476677406  0.0000
  O3     O3        0.112722708639625    0.895414181389585    0.738751552183829  0.0000
  O1     O1        0.093365779159682    0.098329678453827    0.731948096041182  0.0000
  O1     O1        0.969487363738060    0.080489581886377    0.253091345030678  0.0000
  O1     O1        0.362053775699160    0.349658357004692    0.501145298088081  0.0000
  O1     O1        0.679703961248445    0.343041275550662    0.502485078328382  0.0000
  O1     O1        0.703952604164711    0.618009351488902    0.479255351783635  0.0000
  O1     O1        0.386241666317200    0.624333410815816    0.483263618636017  0.0000
  O1     O1        0.892076471320268    0.844223211942165    0.506314682435527  0.0000
  O3     O3        0.206061678220076    0.859118962303798    0.508002169748036  0.0000
  O1     O1        0.194069492756142    0.127779397487933    0.486076271011732  0.0000
  O1     O1        0.861441814824980    0.122296881288517    0.491253321063850  0.0000
  O1     O1        0.266699175642634    0.482845204146020    0.310279768445924  0.0000
  O1     O1        0.796829231963456    0.482069565823954    0.674767162272774  0.0000
  O1     O1        0.777607429162179    0.975282441069448    0.321492932131753  0.0000
  O3     O3        0.295309241153596    0.992009571643521    0.671482910191569  0.0000
  O1     O1        0.365205571028975    0.495406304965386    0.675533863528061  0.0000
  O1     O1        0.704009542773660    0.474572294257769    0.309618550582355  0.0000
  O1     O1        0.871390811159325    0.987680145331264    0.683051682071958  0.0000
  O1     O1        0.209653452529656    0.989896238654400    0.302183111322307  0.0000
