data_c00163.vasp
_audit_creation_method             Generated by GULP
_audit_author_name                 Salvador R. G. Balestra
_symmetry_space_group_name_H-M     'P 1             '
_symmetry_Int_Tables_number        1

loop_
_symmetry_equiv_pos_site_id
_symmetry_equiv_pos_as_xyz
_cell_length_a                       10.1196
_cell_length_b                       15.8242
_cell_length_c                        9.2139
_cell_angle_alpha                   90.3413
_cell_angle_beta                   104.8778
_cell_angle_gamma                   90.0573

loop_
_atom_site_label
_atom_site_type_symbol
_atom_site_fract_x
_atom_site_fract_y
_atom_site_fract_z
_atom_site_charge
  Ge     Ge        0.351599999999962    0.244500000000016    0.893900000000031  0.0000
  Ge     Ge        0.670722177370645    0.240318024918496    0.096193705848181  0.0000
  Ge     Ge        0.592855664680432    0.743673751276505    0.101077917157956  0.0000
  Ge     Ge        0.290248655098897    0.749835747355803    0.882870721977401  0.0000
  Ge     Ge        0.793420935593590    0.756203573538243    0.886830464895658  0.0000
  Ge     Ge        0.091701796716183    0.730699569558324    0.097230946231162  0.0000
  Ge     Ge        0.138708501939154    0.234104869658524    0.098882100495096  0.0000
  Ge     Ge        0.284599674558758    0.377412635579581    0.335372514792428  0.0000
  Ge     Ge        0.675281271141533    0.605163655031271    0.658496283025499  0.0000
  Ge     Ge        0.270238885230611    0.580187059298003    0.299415493255176  0.0000
  Ge     Ge        0.769694611106015    0.885499401962782    0.330737792126940  0.0000
  Ge     Ge        0.186949080123863    0.908152771548891    0.678616373152507  0.0000
  Ge     Ge        0.192658112876468    0.109190859517030    0.640170747807413  0.0000
  Ge     Ge        0.771602805400564    0.083553596049943    0.314895898232903  0.0000
  Ge     Ge        0.373671740472121    0.399971008993353    0.693815277997529  0.0000
  Ge     Ge        0.600657132985039    0.380834444885109    0.328033557170334  0.0000
  Ge     Ge        0.590818371929278    0.580337092865400    0.292556181163917  0.0000
  Ge     Ge        0.356423950898900    0.602946848122141    0.659148655225893  0.0000
  Ge     Ge        0.874266730483553    0.911110046110692    0.693573376832723  0.0000
  Ge     Ge        0.080871309112740    0.887582154032703    0.310768229015541  0.0000
  Ge     Ge        0.866589716054148    0.115898043951848    0.658541994030851  0.0000
  Si     Si        0.860798337445828    0.266566608839137    0.879411065987550  0.0000
  Si     Si        0.683451172883394    0.407901869392619    0.687217971134154  0.0000
  Si     Si        0.089572450472027    0.079884854732995    0.299433301527049  0.0000
  O1     O1        0.527920373179837    0.247779464759977    0.955275408285675  0.0000
  O1     O1        0.416151076155469    0.743438506947187    0.046213619876988  0.0000
  O1     O1        0.916033015356336    0.731006318640310    0.046208519253814  0.0000
  O3     O3        0.025076965445211    0.266775740012567    0.933639108398065  0.0000
  O1     O1        0.312967737099177    0.174678198162537    0.746216903855494  0.0000
  O1     O1        0.688275135569887    0.138177620590476    0.161871006440059  0.0000
  O1     O1        0.643455881189203    0.817489943897086    0.240495749846767  0.0000
  O1     O1        0.303900415149919    0.840446390392445    0.784991500528485  0.0000
  O1     O1        0.788924485267787    0.678918595515359    0.752580627895580  0.0000
  O1     O1        0.145864514694631    0.634580887650662    0.175456668828641  0.0000
  O1     O1        0.162549949519824    0.307678050166641    0.237395492602199  0.0000
  O2     O2        0.805019727946500    0.351327173113232    0.788072987150093  0.0000
  O1     O1        0.312308355148484    0.344148186927546    0.821068654570912  0.0000
  O1     O1        0.679771628665960    0.306498372751304    0.246874099112429  0.0000
  O1     O1        0.646581945930500    0.645577421896552    0.174245198253504  0.0000
  O1     O1        0.280367669314474    0.664646533788944    0.764398923681323  0.0000
  O1     O1        0.813493544054420    0.854873786667461    0.820277009936482  0.0000
  O1     O1        0.152077359957851    0.812150582126355    0.221160875717195  0.0000
  O3     O3        0.084076069013289    0.138776139583662    0.157428519885060  0.0000
  O3     O3        0.810136603599386    0.185032846025263    0.775752263289748  0.0000
  O1     O1        0.286148010088073    0.218143461346457    0.040742576365124  0.0000
  O3     O3        0.813839165262402    0.262024913567107    0.032620346657516  0.0000
  O1     O1        0.642710759466566    0.761175706491308    0.940702665182294  0.0000
  O1     O1        0.138331444807165    0.747758710649663    0.933729541985898  0.0000
  O1     O1        0.425937515519175    0.370625259461322    0.262934974783434  0.0000
  O3     O3        0.551891430978326    0.408351903835076    0.754097477085507  0.0000
  O1     O1        0.530981953912571    0.612629386954854    0.723201175510869  0.0000
  O1     O1        0.415229173584461    0.573035229033913    0.236924344327777  0.0000
  O1     O1        0.905305166943108    0.877003301107953    0.250606521234882  0.0000
  O1     O1        0.048654628581311    0.914646087140616    0.754082150737864  0.0000
  O1     O1        0.041319814247047    0.125199355166466    0.688157564852911  0.0000
  O3     O3        0.943413726249350    0.058999373067746    0.332165145173429  0.0000
  O1     O1        0.328115568259548    0.350530126077252    0.521274392278816  0.0000
  O3     O3        0.637033754112650    0.369513502689500    0.520382906558785  0.0000
  O1     O1        0.636081338910355    0.623949204543246    0.470110752035583  0.0000
  O1     O1        0.307496176551739    0.629073036152875    0.472457349044207  0.0000
  O1     O1        0.821665141257919    0.864147980877277    0.519433465905262  0.0000
  O1     O1        0.129460100902844    0.868862211662237    0.499395669261525  0.0000
  O3     O3        0.178744698916789    0.125656734491314    0.449359818877452  0.0000
  O1     O1        0.780487015841672    0.139584433853523    0.477144447430489  0.0000
  O1     O1        0.219145069705011    0.477678426970900    0.317585726638528  0.0000
  O3     O3        0.739192550640386    0.502556576801867    0.684301211855136  0.0000
  O1     O1        0.700149654073734    0.985663142498947    0.310336143953041  0.0000
  O1     O1        0.251428432125341    0.007527458474081    0.675206777428315  0.0000
  O1     O1        0.308866049408282    0.499643606750663    0.676324154259178  0.0000
  O1     O1        0.652986226571294    0.479829143294498    0.289895283320933  0.0000
  O1     O1        0.819448170314801    0.014384672548471    0.686388526682110  0.0000
  O3     O3        0.142352183008099    0.986502600772939    0.273367929160219  0.0000
