data_c00179.vasp
_audit_creation_method             Generated by GULP
_audit_author_name                 Salvador R. G. Balestra
_symmetry_space_group_name_H-M     'P 1             '
_symmetry_Int_Tables_number        1

loop_
_symmetry_equiv_pos_site_id
_symmetry_equiv_pos_as_xyz
_cell_length_a                       10.2663
_cell_length_b                       15.8409
_cell_length_c                        9.2635
_cell_angle_alpha                   89.2070
_cell_angle_beta                   105.6860
_cell_angle_gamma                   90.0172

loop_
_atom_site_label
_atom_site_type_symbol
_atom_site_fract_x
_atom_site_fract_y
_atom_site_fract_z
_atom_site_charge
  Ge     Ge        0.351599999999962    0.244500000000016    0.893900000000031  0.0000
  Ge     Ge        0.658312479311479    0.255999687534204    0.109214612348815  0.0000
  Ge     Ge        0.640421307972028    0.766822492742537    0.109643042749730  0.0000
  Ge     Ge        0.339220061955042    0.738495275280128    0.902286260238761  0.0000
  Ge     Ge        0.838354179941458    0.752994789637646    0.895366949012450  0.0000
  Ge     Ge        0.138350148057560    0.748202743458860    0.112992650468469  0.0000
  Ge     Ge        0.153082688107211    0.264542785102329    0.107397226129628  0.0000
  Ge     Ge        0.726788571861024    0.390183428376640    0.674949193793916  0.0000
  Ge     Ge        0.728681982155066    0.592234263370953    0.694612037854982  0.0000
  Ge     Ge        0.321878298533317    0.607244604915323    0.339311768184968  0.0000
  Ge     Ge        0.815139113028005    0.911799640708108    0.326158780104595  0.0000
  Ge     Ge        0.215087204814151    0.887966250773518    0.669424594250900  0.0000
  Ge     Ge        0.238908355379135    0.088428695052725    0.696600939636040  0.0000
  Ge     Ge        0.824924697141596    0.113964100853762    0.347480631955485  0.0000
  Ge     Ge        0.407803031247817    0.389362809360838    0.662273535097420  0.0000
  Ge     Ge        0.637008988342749    0.410014508572066    0.311226077225332  0.0000
  Ge     Ge        0.632615591143370    0.612546345408268    0.328421498697075  0.0000
  Ge     Ge        0.414488719515906    0.590074370248566    0.698609534060835  0.0000
  Ge     Ge        0.125141970331309    0.908499191019418    0.306293344048573  0.0000
  Ge     Ge        0.137630393798724    0.110906975191546    0.331896908549074  0.0000
  Ge     Ge        0.926935440383577    0.097202429545040    0.707307427452226  0.0000
  Si     Si        0.856670238503515    0.245578509848797    0.903849346696955  0.0000
  Si     Si        0.328182203260813    0.407571412863369    0.311998681688450  0.0000
  Si     Si        0.910407256204167    0.898747069130228    0.680677318499525  0.0000
  O1     O1        0.484428806063120    0.256118274024243    0.047283750387591  0.0000
  O1     O1        0.466512296290746    0.763271470654473    0.056723956818614  0.0000
  O1     O1        0.964170226329486    0.751105192897926    0.059016444428993  0.0000
  O3     O3        0.977036574730265    0.267577966376343    0.049272807428375  0.0000
  O1     O1        0.360634934069250    0.148450380531725    0.811937622574462  0.0000
  O1     O1        0.701279847130712    0.178918411911685    0.243980593172363  0.0000
  O1     O1        0.686504590773655    0.856394502283547    0.212136155299663  0.0000
  O1     O1        0.327394796857377    0.814620833824553    0.765225631501266  0.0000
  O1     O1        0.842618960403326    0.660433752831243    0.802235865244207  0.0000
  O1     O1        0.188694968786933    0.666320134031711    0.238832210157384  0.0000
  O3     O3        0.209671886361938    0.357996076299568    0.196814819896943  0.0000
  O3     O3        0.843476176048109    0.317746861860940    0.776571189611451  0.0000
  O1     O1        0.333939389393169    0.320737119039495    0.756935528257613  0.0000
  O1     O1        0.701061323410544    0.352236020349760    0.192001366331166  0.0000
  O1     O1        0.701063883211704    0.681439335781764    0.226362544356206  0.0000
  O1     O1        0.358417214249379    0.641806134746263    0.830787216769592  0.0000
  O3     O3        0.844091529064492    0.839112728388231    0.781015855364444  0.0000
  O1     O1        0.189065069198638    0.843905362261896    0.195745273982188  0.0000
  O1     O1        0.204424894152315    0.181299500666725    0.230382191149802  0.0000
  O3     O3        0.875010436114542    0.154134977780636    0.839458526080403  0.0000
  O1     O1        0.205431634772679    0.251508699061250    0.950524415181757  0.0000
  O3     O3        0.718857880308934    0.242297838562980    0.955526755556845  0.0000
  O1     O1        0.690209901695102    0.762700058420997    0.947657839983945  0.0000
  O1     O1        0.191345620504963    0.735483021959670    0.955477460172060  0.0000
  O3     O3        0.460946980644745    0.411750272936788    0.251671629250177  0.0000
  O1     O1        0.581356785292295    0.386585387543707    0.732413793709938  0.0000
  O1     O1        0.587747185140330    0.586434804586120    0.760494605022112  0.0000
  O1     O1        0.458206771269888    0.619793930503579    0.267239695887261  0.0000
  O1     O1        0.950776956415509    0.911827996394930    0.251289356644233  0.0000
  O3     O3        0.073245033085135    0.892168923873227    0.737907306535125  0.0000
  O1     O1        0.098563945942210    0.090823091430132    0.764935937018259  0.0000
  O1     O1        0.963801966837829    0.117880577351755    0.277793067415196  0.0000
  O3     O3        0.368881432190181    0.362186221614756    0.474733191968008  0.0000
  O1     O1        0.690209091074414    0.366702564357101    0.488329229122414  0.0000
  O1     O1        0.679165622779692    0.634019004056757    0.515925302155989  0.0000
  O1     O1        0.364352467524279    0.637055061969521    0.523750892964367  0.0000
  O3     O3        0.864098731124896    0.870628352631739    0.507843203251297  0.0000
  O1     O1        0.169393387771895    0.864712758382028    0.483945077006788  0.0000
  O1     O1        0.192805301322297    0.132083050192485    0.519011477033360  0.0000
  O1     O1        0.871556405292744    0.143016962349292    0.532938778183601  0.0000
  O3     O3        0.277547898816752    0.501466758727253    0.332236497580963  0.0000
  O1     O1        0.791131438938449    0.491432894639092    0.696142670104092  0.0000
  O1     O1        0.762251944583119    0.013386814470826    0.335913343189428  0.0000
  O1     O1        0.289591966163635    0.986271942216982    0.690224168388480  0.0000
  O1     O1        0.352395515762567    0.489112716116885    0.683183141935337  0.0000
  O1     O1        0.689065136731342    0.512232777454059    0.309409335172280  0.0000
  O3     O3        0.864182142603941    0.994756705657626    0.694957068602391  0.0000
  O1     O1        0.185479207704527    0.009166649158568    0.304782057483042  0.0000
