data_c00180.vasp
_audit_creation_method             Generated by GULP
_audit_author_name                 Salvador R. G. Balestra
_symmetry_space_group_name_H-M     'P 1             '
_symmetry_Int_Tables_number        1

loop_
_symmetry_equiv_pos_site_id
_symmetry_equiv_pos_as_xyz
_cell_length_a                       10.2538
_cell_length_b                       15.8388
_cell_length_c                        9.2701
_cell_angle_alpha                   89.8121
_cell_angle_beta                   105.6555
_cell_angle_gamma                   89.5566

loop_
_atom_site_label
_atom_site_type_symbol
_atom_site_fract_x
_atom_site_fract_y
_atom_site_fract_z
_atom_site_charge
  Ge     Ge        0.351599999999962    0.244500000000016    0.893900000000031  0.0000
  Ge     Ge        0.659090718663673    0.250483518506920    0.110940030282769  0.0000
  Ge     Ge        0.642627815961784    0.759926834910071    0.114211704475779  0.0000
  Ge     Ge        0.345815001560331    0.733342877420741    0.897764866003454  0.0000
  Ge     Ge        0.844473716767939    0.743926998529856    0.905041077356546  0.0000
  Ge     Ge        0.149647202155425    0.742744558555429    0.114750315581696  0.0000
  Ge     Ge        0.154976609648511    0.260874237775760    0.109951925178826  0.0000
  Ge     Ge        0.726925154078080    0.383580993762215    0.678809801522841  0.0000
  Ge     Ge        0.731934244082048    0.586092832633473    0.699411610227696  0.0000
  Ge     Ge        0.328049920420585    0.602647269575447    0.347142675527569  0.0000
  Ge     Ge        0.820848397957827    0.905684740548383    0.322524193468716  0.0000
  Ge     Ge        0.225518761181338    0.885993071758860    0.672495276801821  0.0000
  Ge     Ge        0.243270965760106    0.086039736705121    0.693513231633706  0.0000
  Ge     Ge        0.828305912231769    0.109676723900489    0.348062607582422  0.0000
  Ge     Ge        0.410238461305613    0.389075870497183    0.668510450608774  0.0000
  Ge     Ge        0.639414433233712    0.404756830704536    0.316683535871874  0.0000
  Ge     Ge        0.641018953100942    0.607906345971361    0.338239111910623  0.0000
  Ge     Ge        0.913390971411095    0.891930402407939    0.682415715457623  0.0000
  Ge     Ge        0.131388313367549    0.903975973614477    0.305968576902455  0.0000
  Ge     Ge        0.140789253876999    0.106662702075114    0.329764940582894  0.0000
  Ge     Ge        0.928324296572701    0.093956363621513    0.705875190145032  0.0000
  Si     Si        0.860088688794186    0.241680579047453    0.908348530456993  0.0000
  Si     Si        0.329589565294108    0.404235659339845    0.317162129966762  0.0000
  Si     Si        0.420685027692033    0.586320231490113    0.698265122059133  0.0000
  O1     O1        0.485121252400256    0.252740295261540    0.047894776149750  0.0000
  O1     O1        0.468827515199275    0.754725210920176    0.058515555346161  0.0000
  O1     O1        0.975030442077735    0.744993010304283    0.063974598150560  0.0000
  O3     O3        0.978824517209400    0.265396991679222    0.054410512438892  0.0000
  O1     O1        0.361090869106760    0.149823391410984    0.806106139449972  0.0000
  O1     O1        0.701326170882357    0.171636551164648    0.241677197353297  0.0000
  O1     O1        0.689461148585865    0.853429072070997    0.204943634031423  0.0000
  O1     O1        0.338249611803288    0.811617211935557    0.767932462953439  0.0000
  O1     O1        0.847306662382168    0.648866757544820    0.815810171194032  0.0000
  O1     O1        0.199101860900658    0.664963359075700    0.248226979098328  0.0000
  O3     O3        0.212691049512530    0.353312361802062    0.202444708527113  0.0000
  O3     O3        0.845738636244353    0.312507696555036    0.780096525325629  0.0000
  O1     O1        0.332487438217844    0.325394424168957    0.765805067702594  0.0000
  O1     O1        0.703333647256710    0.345960258610513    0.197343869179127  0.0000
  O1     O1        0.706072483654014    0.677557918930126    0.236048859571746  0.0000
  O3     O3        0.367709855268891    0.637092434106233    0.820094764327969  0.0000
  O1     O1        0.843087390348785    0.827847690444646    0.788092807908601  0.0000
  O1     O1        0.198102032975279    0.839574863132317    0.195665421952937  0.0000
  O1     O1        0.207162302479050    0.176395844205187    0.228354813930628  0.0000
  O3     O3        0.885050566915887    0.150888106675381    0.844772314804978  0.0000
  O1     O1        0.205354385853603    0.248259521009233    0.951115814589785  0.0000
  O3     O3        0.721365130660972    0.236997627421036    0.958044407663687  0.0000
  O1     O1        0.694945470849501    0.751079337707802    0.955030025946447  0.0000
  O1     O1        0.199681527418604    0.726740851129293    0.955483541085050  0.0000
  O3     O3        0.463256123490853    0.407617781267479    0.258284879350561  0.0000
  O1     O1        0.582519471623935    0.378129569936797    0.738713772562927  0.0000
  O3     O3        0.582928434381448    0.579659440813574    0.753678853630024  0.0000
  O1     O1        0.466458219947583    0.614912073552270    0.279587726929686  0.0000
  O1     O1        0.956809971034995    0.906772354279757    0.247362032667244  0.0000
  O1     O1        0.087493482195128    0.885697060183412    0.744727443504678  0.0000
  O1     O1        0.100447004142335    0.081446446020900    0.756606058315144  0.0000
  O1     O1        0.966770898582108    0.114498205715924    0.277467765795545  0.0000
  O3     O3        0.368181085090742    0.361208248438973    0.481097213763818  0.0000
  O1     O1        0.689695619480047    0.360037673223909    0.492160976335616  0.0000
  O1     O1        0.694823571573224    0.631351092993653    0.524739977390601  0.0000
  O3     O3        0.373676308715327    0.630385699941733    0.535246137274906  0.0000
  O1     O1        0.865726305736332    0.860831610520539    0.498201093443700  0.0000
  O1     O1        0.173724413329561    0.863828434650589    0.485499608145335  0.0000
  O1     O1        0.197675121278069    0.128983707036028    0.516516065397178  0.0000
  O1     O1        0.873543346280759    0.141098480659634    0.532874608565834  0.0000
  O3     O3        0.276495772693619    0.498672359419215    0.331238043848130  0.0000
  O1     O1        0.790577386844275    0.484473067948410    0.699660616779040  0.0000
  O1     O1        0.772500691269810    0.007905885126269    0.343526396776840  0.0000
  O1     O1        0.300060552312585    0.984122609856557    0.690995048377419  0.0000
  O3     O3        0.360648010081499    0.492385136252653    0.684631550030767  0.0000
  O1     O1        0.694166997665351    0.506344300872128    0.318076200932442  0.0000
  O1     O1        0.861379347785787    0.994350235613139    0.697461314701531  0.0000
  O1     O1        0.189704187721041    0.004882906549831    0.302752946920428  0.0000
