data_c00136.vasp
_audit_creation_method             Generated by GULP
_audit_author_name                 Salvador R. G. Balestra
_symmetry_space_group_name_H-M     'P 1             '
_symmetry_Int_Tables_number        1

loop_
_symmetry_equiv_pos_site_id
_symmetry_equiv_pos_as_xyz
_cell_length_a                       10.0725
_cell_length_b                       15.7726
_cell_length_c                        9.3755
_cell_angle_alpha                   89.1608
_cell_angle_beta                   105.7080
_cell_angle_gamma                   89.5300

loop_
_atom_site_label
_atom_site_type_symbol
_atom_site_fract_x
_atom_site_fract_y
_atom_site_fract_z
_atom_site_charge
  Ge     Ge        0.351599999999962    0.244500000000016    0.893900000000031  0.0000
  Ge     Ge        0.655822424956032    0.265284407006484    0.109321544749903  0.0000
  Ge     Ge        0.660499540872524    0.766651756617182    0.117935953679141  0.0000
  Ge     Ge        0.353993473716674    0.757982870399089    0.899280152816177  0.0000
  Ge     Ge        0.855922668580921    0.745751387662461    0.902467276440809  0.0000
  Ge     Ge        0.157260614666522    0.766994899089745    0.114545213657005  0.0000
  Ge     Ge        0.152433745492693    0.261935063775541    0.109561487248782  0.0000
  Ge     Ge        0.266340597250729    0.416006535677346    0.314627070521856  0.0000
  Ge     Ge        0.674615950752258    0.392486803860130    0.672121423853293  0.0000
  Ge     Ge        0.681513390977607    0.598994524569065    0.696883364608291  0.0000
  Ge     Ge        0.273741552380746    0.617957092009862    0.345928728923280  0.0000
  Ge     Ge        0.182714397452854    0.096236443748895    0.694612853656619  0.0000
  Ge     Ge        0.772179122611077    0.115535304922710    0.341474013950948  0.0000
  Ge     Ge        0.351723609856850    0.395915222250672    0.669579271308811  0.0000
  Ge     Ge        0.588435376880852    0.411829952158710    0.319574474156956  0.0000
  Ge     Ge        0.594560978948082    0.618987117143588    0.344683048605889  0.0000
  Ge     Ge        0.360779750786673    0.598129434877166    0.700336675983138  0.0000
  Ge     Ge        0.858030286850712    0.898300842580291    0.675347496694001  0.0000
  Ge     Ge        0.085459106134347    0.914386067556840    0.324041494336965  0.0000
  Ge     Ge        0.094459400734076    0.117352899884567    0.341474234125240  0.0000
  Ge     Ge        0.863209661477365    0.100361326135402    0.703385721804540  0.0000
  Si     Si        0.852046098621759    0.253131616018047    0.901781411809123  0.0000
  Si     Si        0.767381912922336    0.917763166691744    0.324671533914544  0.0000
  Si     Si        0.173511381774257    0.896286487929737    0.667668057924103  0.0000
  O1     O1        0.527695518463912    0.256457644062468    0.949190584739724  0.0000
  O1     O1        0.531166889936155    0.764920858821129    0.956802166045033  0.0000
  O1     O1        0.032561260488023    0.751091413744263    0.952554565929090  0.0000
  O3     O3        0.018326803262091    0.252478178960901    0.951061806711593  0.0000
  O1     O1        0.313201256690115    0.146510302849103    0.817698606968358  0.0000
  O1     O1        0.653714770542472    0.185533466133411    0.235889894974889  0.0000
  O3     O3        0.657549085418368    0.859188572580940    0.215512961464533  0.0000
  O3     O3        0.292076670650010    0.837699164915521    0.770076740163543  0.0000
  O1     O1        0.806144657251772    0.649256374772513    0.827444894396711  0.0000
  O1     O1        0.155521871481016    0.688953483333771    0.243394163890109  0.0000
  O1     O1        0.144761414572676    0.356268366585781    0.196527204417732  0.0000
  O3     O3        0.801072976067701    0.330298269053481    0.786773588789668  0.0000
  O1     O1        0.282776204248771    0.323629814192908    0.765898203425938  0.0000
  O1     O1        0.652340525123549    0.360881424752268    0.192062659025225  0.0000
  O1     O1        0.661239062593402    0.680054206547125    0.230229433412528  0.0000
  O1     O1        0.304527114639551    0.661738337445699    0.819341127332436  0.0000
  O1     O1        0.792759952716298    0.824398050393575    0.770164089961014  0.0000
  O1     O1        0.139123918791058    0.862799261116400    0.191738360088141  0.0000
  O1     O1        0.167151194661385    0.180842214883158    0.236469603178262  0.0000
  O3     O3        0.801393800460478    0.165324840593906    0.818651138389860  0.0000
  O1     O1        0.299484493073293    0.257728569619244    0.050780712980625  0.0000
  O3     O3        0.805959932097532    0.261693188267725    0.051239013745889  0.0000
  O1     O1        0.810149617536421    0.761978957957032    0.062957831674942  0.0000
  O1     O1        0.308058022554971    0.765855959207607    0.061478205875712  0.0000
  O1     O1        0.426646374368307    0.376343414017518    0.315745714074722  0.0000
  O1     O1        0.511522792139733    0.358597099220689    0.663252735494455  0.0000
  O1     O1        0.520464165860443    0.635185323105202    0.697742963641567  0.0000
  O1     O1        0.435487095946818    0.655444079894739    0.352033379462354  0.0000
  O3     O3        0.907320124746005    0.922064891155070    0.273500563830610  0.0000
  O3     O3        0.037255557831535    0.893984236421051    0.725976118053300  0.0000
  O1     O1        0.039800472423955    0.097460794303930    0.760113953129982  0.0000
  O1     O1        0.917619163853817    0.123808348404764    0.281241852165855  0.0000
  O1     O1        0.249244367795937    0.409199750695671    0.492313741972834  0.0000
  O1     O1        0.694765220806531    0.395649660437926    0.495967844433631  0.0000
  O1     O1        0.701977308936589    0.614349461549572    0.522062581258030  0.0000
  O1     O1        0.256059893402120    0.606247648061774    0.521658877563499  0.0000
  O3     O3        0.800515470034502    0.877118407427553    0.488907648090851  0.0000
  O3     O3        0.138926799720219    0.865689234443814    0.498161888362685  0.0000
  O1     O1        0.145756168088990    0.146222965507452    0.524396687510579  0.0000
  O1     O1        0.808598952812610    0.140360845423183    0.525152778857188  0.0000
  O1     O1        0.251790433354682    0.520792594844466    0.261704706182872  0.0000
  O1     O1        0.689617503373458    0.493033735515944    0.741310247756716  0.0000
  O3     O3        0.709277726399604    0.012890488321417    0.324682611550486  0.0000
  O3     O3        0.227306230761446    0.992159129630469    0.671740972768189  0.0000
  O1     O1        0.368019008011208    0.493461607414005    0.754307063046703  0.0000
  O1     O1        0.574786930284628    0.517955826127060    0.276063878236182  0.0000
  O1     O1        0.806564683572264    0.998319961980726    0.709444518127358  0.0000
  O1     O1        0.147886032101941    0.014781405093961    0.329647095142211  0.0000
