data_c00110.vasp
_audit_creation_method             Generated by GULP
_audit_author_name                 Salvador R. G. Balestra
_symmetry_space_group_name_H-M     'P 1             '
_symmetry_Int_Tables_number        1

loop_
_symmetry_equiv_pos_site_id
_symmetry_equiv_pos_as_xyz
_cell_length_a                       10.2400
_cell_length_b                       15.8538
_cell_length_c                        9.3110
_cell_angle_alpha                   90.2733
_cell_angle_beta                   105.5436
_cell_angle_gamma                   90.1145

loop_
_atom_site_label
_atom_site_type_symbol
_atom_site_fract_x
_atom_site_fract_y
_atom_site_fract_z
_atom_site_charge
  Ge     Ge        0.351599999999962    0.244500000000016    0.893900000000031  0.0000
  Ge     Ge        0.657958879798164    0.244493661487863    0.102440034042250  0.0000
  Ge     Ge        0.674187495484902    0.742915877333422    0.111777583326862  0.0000
  Ge     Ge        0.371622416768478    0.761089971301171    0.904525141502826  0.0000
  Ge     Ge        0.872410200752559    0.747824470625599    0.894740088019828  0.0000
  Ge     Ge        0.172055464401056    0.749994917463021    0.113946169101014  0.0000
  Ge     Ge        0.154127972996881    0.244523711036028    0.110970169224867  0.0000
  Ge     Ge        0.282273271064878    0.394743294816906    0.331527038425039  0.0000
  Ge     Ge        0.688651401783216    0.396358735806961    0.686642224562256  0.0000
  Ge     Ge        0.694838956167086    0.600645150337292    0.675755839369038  0.0000
  Ge     Ge        0.285739596513361    0.596111316716198    0.324351498785735  0.0000
  Ge     Ge        0.786288293529852    0.893238443517065    0.340725853634523  0.0000
  Ge     Ge        0.185544510617453    0.903706109196136    0.691730739884151  0.0000
  Ge     Ge        0.772553159550600    0.093326635121571    0.325677303088887  0.0000
  Ge     Ge        0.374542095948681    0.402625104362125    0.694947395063665  0.0000
  Ge     Ge        0.598163284058766    0.390839689889475    0.328787749393511  0.0000
  Ge     Ge        0.600136418841379    0.593980642927022    0.317798856774034  0.0000
  Ge     Ge        0.382027171209249    0.605463100489414    0.687803906275971  0.0000
  Ge     Ge        0.102147138304330    0.894352160168781    0.337293308257862  0.0000
  Ge     Ge        0.091645265819996    0.096282719391359    0.328222281843405  0.0000
  Ge     Ge        0.872959938784907    0.102405078752295    0.688929761664130  0.0000
  Si     Si        0.859099718846288    0.252942013619080    0.899801714670065  0.0000
  Si     Si        0.178055794071635    0.104081934445214    0.675553756698989  0.0000
  Si     Si        0.879755092233147    0.904193991771896    0.699724304469696  0.0000
  O1     O1        0.526123635493301    0.240214676437667    0.946236710646031  0.0000
  O1     O1        0.545820627459309    0.761867865990843    0.954680532638991  0.0000
  O1     O1        0.046553663518509    0.746822514438250    0.951017389573665  0.0000
  O3     O3        0.022100650467764    0.253697880459845    0.952020897474060  0.0000
  O3     O3        0.297918037976059    0.159517364291255    0.776578392507503  0.0000
  O1     O1        0.656572064426360    0.157974711143394    0.212893330239180  0.0000
  O1     O1        0.676220649496478    0.818320801304959    0.246779194293257  0.0000
  O1     O1        0.314544694240701    0.853927366588288    0.815051815922224  0.0000
  O1     O1        0.822138885377212    0.662004366988998    0.782204150709301  0.0000
  O1     O1        0.166396105596715    0.661878186820639    0.219334613324099  0.0000
  O1     O1        0.159743598488622    0.328980258235202    0.228327859430415  0.0000
  O3     O3        0.811764030800668    0.336415608059983    0.804676957260894  0.0000
  O1     O1        0.305522605838422    0.338149211478871    0.802042135077737  0.0000
  O1     O1        0.662779842274447    0.332939444905098    0.209561189976780  0.0000
  O1     O1        0.661380367106043    0.646623333484374    0.189663955919948  0.0000
  O1     O1        0.315641622558035    0.676098058297051    0.787879904429918  0.0000
  O3     O3        0.817773394013593    0.840727155426693    0.797564985890127  0.0000
  O1     O1        0.170873872721707    0.837900951529913    0.220278300698503  0.0000
  O1     O1        0.154417934769747    0.153459999251300    0.207747275426192  0.0000
  O3     O3        0.808894784289650    0.169868145837685    0.798106493393881  0.0000
  O1     O1        0.299875016819301    0.241540458757063    0.052618361093941  0.0000
  O3     O3        0.807015766243387    0.247771837686676    0.046701262211507  0.0000
  O1     O1        0.820595859769184    0.744904279266370    0.054814765666129  0.0000
  O1     O1        0.323012915306063    0.751367314466111    0.065341837003197  0.0000
  O1     O1        0.424054411784918    0.390399326468418    0.265894302777336  0.0000
  O1     O1        0.549166816060597    0.400947452380840    0.754945321485301  0.0000
  O1     O1        0.556600411358047    0.605882550107929    0.747470417387128  0.0000
  O1     O1        0.426301571176583    0.592350268927960    0.256678315275320  0.0000
  O1     O1        0.928275725714324    0.890746628330439    0.275840706729356  0.0000
  O3     O3        0.042985124355398    0.901541121095198    0.758061886321862  0.0000
  O3     O3        0.048065644387385    0.107943475707852    0.741859263747473  0.0000
  O1     O1        0.918311573252977    0.093535508837028    0.267911056504102  0.0000
  O1     O1        0.329209306621308    0.365519452779459    0.515003853198047  0.0000
  O1     O1        0.646553210716564    0.354546494989630    0.509504976613421  0.0000
  O1     O1        0.651470832027767    0.636189564520464    0.494720450508330  0.0000
  O1     O1        0.337026708083841    0.633672727660919    0.503823710390321  0.0000
  O3     O3        0.839133365895474    0.872577640257739    0.529258631065512  0.0000
  O1     O1        0.154153881310648    0.858453291983758    0.518138232283579  0.0000
  O3     O3        0.134976545426190    0.138869051322008    0.507332255705353  0.0000
  O1     O1        0.808442487229214    0.129341959439236    0.506944534039789  0.0000
  O1     O1        0.221541493444983    0.496057635341418    0.322389034142973  0.0000
  O1     O1        0.747326564548132    0.497477938494829    0.679552625545234  0.0000
  O1     O1        0.713726307155257    0.991353685982691    0.316554328872526  0.0000
  O3     O3        0.227213622959316    0.008175433839790    0.672662490526313  0.0000
  O1     O1        0.322798314217456    0.505032752365317    0.703831534787227  0.0000
  O1     O1        0.657545913348862    0.492046194287213    0.329887949809975  0.0000
  O3     O3        0.826662317118291    0.998664033506031    0.711133890441295  0.0000
  O1     O1        0.155152932377681    0.996722127877158    0.332987227355847  0.0000
