data_c00171.vasp
_audit_creation_method             Generated by GULP
_audit_author_name                 Salvador R. G. Balestra
_symmetry_space_group_name_H-M     'P 1             '
_symmetry_Int_Tables_number        1

loop_
_symmetry_equiv_pos_site_id
_symmetry_equiv_pos_as_xyz
_cell_length_a                       10.2164
_cell_length_b                       15.7950
_cell_length_c                        9.3543
_cell_angle_alpha                   90.1944
_cell_angle_beta                   105.5181
_cell_angle_gamma                   89.8917

loop_
_atom_site_label
_atom_site_type_symbol
_atom_site_fract_x
_atom_site_fract_y
_atom_site_fract_z
_atom_site_charge
  Ge     Ge        0.351599999999962    0.244500000000016    0.893900000000031  0.0000
  Ge     Ge        0.655692725891754    0.230465110930774    0.107206467260818  0.0000
  Ge     Ge        0.663581306460479    0.745390840519895    0.117240576021675  0.0000
  Ge     Ge        0.361810755906417    0.745573814755661    0.902401271244732  0.0000
  Ge     Ge        0.860868530937085    0.742151428767338    0.903187446663558  0.0000
  Ge     Ge        0.163410739336514    0.737701005932165    0.114203580877674  0.0000
  Ge     Ge        0.146950813722922    0.252741786398476    0.101856179592372  0.0000
  Ge     Ge        0.334378041768579    0.388282306878355    0.332046580580977  0.0000
  Ge     Ge        0.747093632712662    0.586204316255484    0.690539220220142  0.0000
  Ge     Ge        0.344669987695547    0.594329883259411    0.332405920551106  0.0000
  Ge     Ge        0.842376987356618    0.888391216104586    0.340746149349438  0.0000
  Ge     Ge        0.245509464431148    0.899665545719684    0.690505799274127  0.0000
  Ge     Ge        0.832140893368131    0.093551996162671    0.335631245046349  0.0000
  Ge     Ge        0.422534118170616    0.393101753584484    0.681313760502765  0.0000
  Ge     Ge        0.652600660829589    0.385179100441485    0.325948649141601  0.0000
  Ge     Ge        0.658703464435936    0.587947206070419    0.325116927047872  0.0000
  Ge     Ge        0.430369467561967    0.596338123370776    0.685486877908447  0.0000
  Ge     Ge        0.930832552125460    0.894217409731030    0.694638614145361  0.0000
  Ge     Ge        0.155204779733148    0.893456504667885    0.327089983413334  0.0000
  Ge     Ge        0.145623653363230    0.096013530136097    0.318959635870727  0.0000
  Ge     Ge        0.927293510430872    0.098623312989094    0.686722096796642  0.0000
  Si     Si        0.849607712749520    0.242262737482130    0.897956288364771  0.0000
  Si     Si        0.736680558009465    0.389684073450355    0.680868482368428  0.0000
  Si     Si        0.236764137416993    0.097134699770320    0.673566314639424  0.0000
  O1     O1        0.481755519295202    0.229275852563851    0.049697505845420  0.0000
  O1     O1        0.488635106946882    0.746796430141011    0.064019916083464  0.0000
  O1     O1        0.988741908733333    0.736905222187617    0.063796847055494  0.0000
  O3     O3        0.970713771305144    0.257752880763880    0.044869845455887  0.0000
  O3     O3        0.345239819576468    0.162531739335680    0.768594917549942  0.0000
  O1     O1        0.700148756602468    0.141653547583601    0.212212884724260  0.0000
  O1     O1        0.713225267199556    0.832699087871658    0.227181595320089  0.0000
  O1     O1        0.366550916833115    0.834926824619074    0.797881221151652  0.0000
  O1     O1        0.865313552216830    0.654292353845482    0.794249574546430  0.0000
  O1     O1        0.215308971876187    0.647839637792547    0.215045481760686  0.0000
  O1     O1        0.201282006285564    0.339905250277932    0.209987584536687  0.0000
  O2     O2        0.836111970955024    0.321180810384918    0.784251052323167  0.0000
  O1     O1        0.372919783909552    0.338975792931607    0.814397415943496  0.0000
  O1     O1        0.715273498971245    0.316316252178525    0.220005084113291  0.0000
  O1     O1        0.723679663081461    0.656408602093929    0.220906869448720  0.0000
  O1     O1        0.362001611478273    0.656259728052345    0.798861818423488  0.0000
  O1     O1        0.864129682344494    0.834573860956620    0.809252784261034  0.0000
  O1     O1        0.222133016645183    0.824899545917729    0.224307968120051  0.0000
  O1     O1        0.203664341432493    0.164915289755865    0.210181832160208  0.0000
  O3     O3        0.877023159981246    0.156862630494724    0.818305346464206  0.0000
  O1     O1        0.203234131297414    0.250199505879702    0.946002724205657  0.0000
  O3     O3        0.711865256623975    0.232715974600411    0.948131593051507  0.0000
  O1     O1        0.711885771257542    0.745336711171156    0.956305259254063  0.0000
  O1     O1        0.211809238783433    0.742464893760337    0.953524914078424  0.0000
  O1     O1        0.478011286183640    0.379979174543431    0.270107891069501  0.0000
  O3     O3        0.598483753683237    0.399758505348849    0.728845890769117  0.0000
  O1     O1        0.604430956084346    0.594654861585533    0.753159778686609  0.0000
  O1     O1        0.484212213512341    0.592596102005607    0.263369139496294  0.0000
  O1     O1        0.980246850946387    0.888922390188572    0.268942473028440  0.0000
  O1     O1        0.105198539701409    0.895467832630819    0.757603499753477  0.0000
  O3     O3        0.103294083934063    0.094928824727874    0.734075164846402  0.0000
  O1     O1        0.971378519140457    0.098781626556355    0.266017406747161  0.0000
  O1     O1        0.365824215081290    0.347674584959980    0.509208054666219  0.0000
  O3     O3        0.704294801498624    0.357999752187517    0.512132111297399  0.0000
  O1     O1        0.707377188044017    0.616982477722901    0.508274663407647  0.0000
  O1     O1        0.388736650014154    0.636800974378390    0.508331694438527  0.0000
  O1     O1        0.887141752205947    0.850608014251613    0.519372297769844  0.0000
  O1     O1        0.203937994200782    0.864693721125545    0.510154772711751  0.0000
  O3     O3        0.194332737484160    0.126642640620262    0.503586055179468  0.0000
  O1     O1        0.867246600646497    0.137922706509282    0.511120835181857  0.0000
  O1     O1        0.293914425208240    0.492236251578396    0.348043802899318  0.0000
  O3     O3        0.805851348959580    0.482107260952717    0.698322577530670  0.0000
  O1     O1        0.790371066933398    0.990611881039331    0.355932573171025  0.0000
  O3     O3        0.300954076712223    0.003415468085747    0.687890359324935  0.0000
  O1     O1        0.366891029506326    0.495437611056608    0.681158221755877  0.0000
  O1     O1        0.708179290119862    0.485466116945132    0.305659281619947  0.0000
  O1     O1        0.872511156160753    0.996559984926489    0.694053866310602  0.0000
  O1     O1        0.204017397416807    0.995612424351714    0.303644235458025  0.0000
