data_c00139.vasp
_audit_creation_method             Generated by GULP
_audit_author_name                 Salvador R. G. Balestra
_symmetry_space_group_name_H-M     'P 1             '
_symmetry_Int_Tables_number        1

loop_
_symmetry_equiv_pos_site_id
_symmetry_equiv_pos_as_xyz
_cell_length_a                       10.2288
_cell_length_b                       15.8211
_cell_length_c                        9.2900
_cell_angle_alpha                   89.5919
_cell_angle_beta                   105.6259
_cell_angle_gamma                   89.1997

loop_
_atom_site_label
_atom_site_type_symbol
_atom_site_fract_x
_atom_site_fract_y
_atom_site_fract_z
_atom_site_charge
  Ge     Ge        0.351599999999962    0.244500000000016    0.893900000000031  0.0000
  Ge     Ge        0.658825632684228    0.248679501329815    0.107998573340236  0.0000
  Ge     Ge        0.651917697838592    0.759228273109976    0.110791153654742  0.0000
  Ge     Ge        0.348934322136716    0.740142259324891    0.900738694461454  0.0000
  Ge     Ge        0.856531610200903    0.740428878742891    0.906351984874510  0.0000
  Ge     Ge        0.156413153210673    0.749309944603819    0.123333816500720  0.0000
  Ge     Ge        0.147801943969597    0.260606600322120    0.102834836029226  0.0000
  Ge     Ge        0.325978133635048    0.407571855694936    0.307817734827748  0.0000
  Ge     Ge        0.725951682192108    0.383767516213848    0.673529368436790  0.0000
  Ge     Ge        0.740453151522246    0.585337590440423    0.699970080872350  0.0000
  Ge     Ge        0.830821270178264    0.903205325681299    0.324330499406731  0.0000
  Ge     Ge        0.234184656715498    0.889298992134731    0.668095249641578  0.0000
  Ge     Ge        0.245744935001472    0.088088373174581    0.690039402438713  0.0000
  Ge     Ge        0.829147618534617    0.107835197309802    0.344334195618501  0.0000
  Ge     Ge        0.408160691735328    0.389098488013148    0.665758689208479  0.0000
  Ge     Ge        0.641038361533105    0.404608036551509    0.308701962758053  0.0000
  Ge     Ge        0.645841030979765    0.606977751521981    0.338220180670939  0.0000
  Ge     Ge        0.421197600437332    0.590148943553356    0.694744224277628  0.0000
  Ge     Ge        0.920176670555763    0.889569605994960    0.680629625057998  0.0000
  Ge     Ge        0.141423664924989    0.106921231990575    0.326819362360892  0.0000
  Ge     Ge        0.928105790883766    0.092094344428638    0.700313691846718  0.0000
  Si     Si        0.853607219001122    0.238191717840232    0.900035252138798  0.0000
  Si     Si        0.337107468527405    0.606967801330207    0.343843809447034  0.0000
  Si     Si        0.136592966688283    0.907914384923620    0.310783367866067  0.0000
  O1     O1        0.484103286719519    0.252964622646584    0.048777745599178  0.0000
  O1     O1        0.477552620124990    0.759654766492243    0.057111132566928  0.0000
  O1     O1        0.982744102527225    0.740359684745946    0.070207220399548  0.0000
  O3     O3        0.971467146725980    0.261457657281192    0.046465109281540  0.0000
  O1     O1        0.362654162372038    0.150903332340228    0.803936905579262  0.0000
  O1     O1        0.699415650743962    0.167478983751259    0.235071925035036  0.0000
  O1     O1        0.706112349887415    0.852705669611347    0.196828919870278  0.0000
  O1     O1        0.345993005658419    0.813973804220485    0.762499143115689  0.0000
  O1     O1        0.860473239064635    0.647504822698761    0.812120057988624  0.0000
  O3     O3        0.221176387362387    0.669093499804774    0.248877246196463  0.0000
  O1     O1        0.196362315621559    0.355275587282689    0.188660620116343  0.0000
  O3     O3        0.841014681003000    0.308676664696087    0.770993283933653  0.0000
  O1     O1        0.333639515687504    0.325813113401511    0.767501661958224  0.0000
  O1     O1        0.709959165212827    0.342309356609297    0.197076877901536  0.0000
  O1     O1        0.709238593752724    0.676961023288332    0.235884616310801  0.0000
  O1     O1        0.360154454846136    0.643687153626475    0.822160331672298  0.0000
  O1     O1        0.856844749386708    0.826450743335015    0.793977431861329  0.0000
  O3     O3        0.197211468464913    0.847023966522638    0.206672045304460  0.0000
  O1     O1        0.206058618598314    0.176705174467569    0.224218727594476  0.0000
  O3     O3        0.879914216284916    0.147309187461527    0.837894188972601  0.0000
  O1     O1        0.203237646789356    0.247095690704806    0.947621741785998  0.0000
  O3     O3        0.714734541224829    0.235355483356295    0.950328423168977  0.0000
  O1     O1        0.704412572025574    0.745402534975127    0.953153162986730  0.0000
  O1     O1        0.203775042246435    0.742920699694796    0.960948143261217  0.0000
  O1     O1        0.466498764684198    0.405308728413714    0.241237555465357  0.0000
  O1     O1        0.582338216106977    0.383634347680263    0.735397855656644  0.0000
  O1     O1        0.594689637855683    0.584112327401515    0.758741150255073  0.0000
  O3     O3        0.469056012529228    0.610095193332963    0.280838448486726  0.0000
  O3     O3        0.973049295873808    0.908623693507159    0.256651393546099  0.0000
  O1     O1        0.094526797565968    0.886295554866969    0.737186337363730  0.0000
  O1     O1        0.101261462165328    0.082501240611248    0.750425414653709  0.0000
  O1     O1        0.967768897949837    0.116873649973083    0.274333116289843  0.0000
  O1     O1        0.364426971501827    0.360316170071277    0.481407281519785  0.0000
  O1     O1        0.682246937726188    0.362095047432406    0.486730546205138  0.0000
  O1     O1        0.701007989354256    0.629609576488488    0.523434183161142  0.0000
  O3     O3        0.378642642699647    0.635004514908532    0.516292678384368  0.0000
  O1     O1        0.867021906979687    0.856342607174687    0.497761971385362  0.0000
  O3     O3        0.179558425697036    0.870548907871967    0.478744030505715  0.0000
  O1     O1        0.201665939673212    0.130021998566356    0.512061629009331  0.0000
  O1     O1        0.872166808546118    0.140042018877434    0.527845209418219  0.0000
  O3     O3        0.281347822584689    0.511970691685267    0.330267348159457  0.0000
  O1     O1        0.796508747466903    0.482713775012134    0.697391982254123  0.0000
  O1     O1        0.779326609998011    0.005055982778332    0.343531626136085  0.0000
  O1     O1        0.307922067095190    0.986730254055734    0.691572973894204  0.0000
  O1     O1        0.355176736677431    0.491074813010840    0.681138223238124  0.0000
  O1     O1        0.698472337099272    0.505697469404220    0.312031130433613  0.0000
  O1     O1        0.864502606404785    0.991865410299290    0.691727795309503  0.0000
  O3     O3        0.189336691628697    0.002562540068001    0.304382821881225  0.0000
