data_c00120.vasp
_audit_creation_method             Generated by GULP
_audit_author_name                 Salvador R. G. Balestra
_symmetry_space_group_name_H-M     'P 1             '
_symmetry_Int_Tables_number        1

loop_
_symmetry_equiv_pos_site_id
_symmetry_equiv_pos_as_xyz
_cell_length_a                       10.2575
_cell_length_b                       15.8464
_cell_length_c                        9.2977
_cell_angle_alpha                   89.7831
_cell_angle_beta                   105.5383
_cell_angle_gamma                   89.0331

loop_
_atom_site_label
_atom_site_type_symbol
_atom_site_fract_x
_atom_site_fract_y
_atom_site_fract_z
_atom_site_charge
  Ge     Ge        0.351599999999962    0.244500000000016    0.893900000000031  0.0000
  Ge     Ge        0.654828539830515    0.264565101598445    0.100885614769945  0.0000
  Ge     Ge        0.646834968887863    0.761465092968284    0.105253153580543  0.0000
  Ge     Ge        0.347866793505261    0.755476868005180    0.885830505068558  0.0000
  Ge     Ge        0.850203655212320    0.746768635815357    0.899557419129618  0.0000
  Ge     Ge        0.153353739065287    0.760611269012546    0.106598385256819  0.0000
  Ge     Ge        0.148598567070293    0.257704488179575    0.105409326531982  0.0000
  Ge     Ge        0.266450016943855    0.411237238898209    0.315744381194157  0.0000
  Ge     Ge        0.675648317256174    0.396961921304610    0.670499065159714  0.0000
  Ge     Ge        0.673096219323545    0.601136358998016    0.685046028087418  0.0000
  Ge     Ge        0.269342365349765    0.611285504594229    0.336650517716036  0.0000
  Ge     Ge        0.763849491073562    0.913950500809574    0.317589242394894  0.0000
  Ge     Ge        0.179327662475646    0.097455208743618    0.687539712873170  0.0000
  Ge     Ge        0.773669861172730    0.115363482662621    0.334484059754608  0.0000
  Ge     Ge        0.363306241028694    0.399518613512648    0.680588448416061  0.0000
  Ge     Ge        0.583023181279902    0.410525563886564    0.313761364960426  0.0000
  Ge     Ge        0.583833323083218    0.613996036475983    0.330314098322555  0.0000
  Ge     Ge        0.861531990597026    0.901387689207717    0.680180327860152  0.0000
  Ge     Ge        0.080773239985584    0.909723512192129    0.316069160321683  0.0000
  Ge     Ge        0.088259034396717    0.111330736720531    0.330006131580694  0.0000
  Ge     Ge        0.869044355020001    0.103935529769310    0.699922179036182  0.0000
  Si     Si        0.852970148741880    0.258591928507944    0.895215573375294  0.0000
  Si     Si        0.167753428390803    0.897741953111298    0.666146656829139  0.0000
  Si     Si        0.365548695216158    0.597738131055262    0.693303920570420  0.0000
  O1     O1        0.525257181613495    0.246505770497051    0.946983359811685  0.0000
  O1     O1        0.520978942484923    0.764431572829701    0.941558208610675  0.0000
  O1     O1        0.024166233688327    0.744101995902714    0.950491672756612  0.0000
  O3     O3        0.016101156550524    0.258224852125611    0.945865487437396  0.0000
  O1     O1        0.308757494210687    0.151032997394119    0.802102329876658  0.0000
  O1     O1        0.660043682723324    0.187529628385257    0.233132450596288  0.0000
  O1     O1        0.643646085314784    0.851103323944527    0.208265135257191  0.0000
  O3     O3        0.284385126558621    0.837562485729172    0.764484756287937  0.0000
  O1     O1        0.794662203528116    0.654734979936169    0.810075095087179  0.0000
  O1     O1        0.155327658783815    0.684267402179233    0.239908249597185  0.0000
  O1     O1        0.147039730643604    0.347721585454417    0.207254461257921  0.0000
  O3     O3        0.804496487407987    0.335745758491762    0.781006565963680  0.0000
  O1     O1        0.293416173622764    0.331033601611677    0.779210765038070  0.0000
  O1     O1        0.643719596900413    0.359924023160946    0.182582883629865  0.0000
  O1     O1        0.646079003357267    0.673453813400650    0.212174783995881  0.0000
  O3     O3        0.306090913352035    0.659407451973055    0.797389632242892  0.0000
  O1     O1        0.797307572543788    0.833077132719585    0.783870079734167  0.0000
  O1     O1        0.142947363280159    0.855513350138300    0.190341169591217  0.0000
  O1     O1        0.156741908881179    0.171515152597785    0.218268577215996  0.0000
  O3     O3        0.804467132180781    0.170924911197559    0.811453538133523  0.0000
  O1     O1        0.295556631215386    0.252970708317046    0.050087827815779  0.0000
  O3     O3        0.802723463167083    0.265939371838345    0.043492530956379  0.0000
  O1     O1        0.798268474781720    0.757799443168800    0.058142906530142  0.0000
  O1     O1        0.298570586041536    0.758864048807498    0.047176678431288  0.0000
  O1     O1        0.409236611452742    0.412810278632261    0.252676166050477  0.0000
  O1     O1        0.537008934427270    0.391799790543532    0.740187688375856  0.0000
  O3     O3        0.528471617652108    0.596400220306355    0.747902293374950  0.0000
  O1     O1        0.410345210457768    0.615708472285176    0.270642709555607  0.0000
  O1     O1        0.907434091189401    0.914055725470293    0.255394668054923  0.0000
  O3     O3        0.037856735155305    0.897093529178957    0.732305664264631  0.0000
  O1     O1        0.042610709013888    0.101476557228279    0.760387735170563  0.0000
  O1     O1        0.914843342531127    0.115581586791408    0.268167755494484  0.0000
  O1     O1        0.313454649034453    0.373514353811832    0.495939391408052  0.0000
  O1     O1        0.634067682675446    0.363795754757067    0.488217476995117  0.0000
  O1     O1        0.636859890889564    0.648322501961299    0.512096712998190  0.0000
  O3     O3        0.320805822179909    0.633462975291653    0.524849113351348  0.0000
  O1     O1        0.804839337914067    0.874657129291089    0.496759845678430  0.0000
  O3     O3        0.125154115601679    0.866607808467406    0.495456341088663  0.0000
  O1     O1        0.137592808130325    0.143045221536280    0.513017378712623  0.0000
  O1     O1        0.820982717716848    0.141351495399459    0.519798138549621  0.0000
  O1     O1        0.202750797802034    0.512343624699124    0.312873415691856  0.0000
  O1     O1        0.728275049204539    0.499222739688685    0.673801500469123  0.0000
  O1     O1        0.705942302633698    0.016211352702871    0.317624108371483  0.0000
  O3     O3        0.222829115341903    0.992470062726103    0.670174545388731  0.0000
  O3     O3        0.312250911699810    0.503424171824359    0.699722768761647  0.0000
  O1     O1        0.641105833720563    0.511642017687450    0.329625493180508  0.0000
  O1     O1        0.811600530459677    0.003325958508297    0.705990578142711  0.0000
  O1     O1        0.143387733323440    0.009177122731088    0.322388975536745  0.0000
