data_c00115.vasp
_audit_creation_method             Generated by GULP
_audit_author_name                 Salvador R. G. Balestra
_symmetry_space_group_name_H-M     'P 1             '
_symmetry_Int_Tables_number        1

loop_
_symmetry_equiv_pos_site_id
_symmetry_equiv_pos_as_xyz
_cell_length_a                       10.2323
_cell_length_b                       15.8302
_cell_length_c                        9.2969
_cell_angle_alpha                   90.8206
_cell_angle_beta                   105.7460
_cell_angle_gamma                   89.7243

loop_
_atom_site_label
_atom_site_type_symbol
_atom_site_fract_x
_atom_site_fract_y
_atom_site_fract_z
_atom_site_charge
  Ge     Ge        0.351599999999962    0.244500000000016    0.893900000000031  0.0000
  Ge     Ge        0.661874275210999    0.238988018751943    0.101463417466088  0.0000
  Ge     Ge        0.662711570605558    0.741588642691981    0.110163971157397  0.0000
  Ge     Ge        0.362821856704648    0.762487568208374    0.897166452123408  0.0000
  Ge     Ge        0.859102402457643    0.749690373703421    0.895839176952090  0.0000
  Ge     Ge        0.163543910177399    0.745157323186213    0.107842317105407  0.0000
  Ge     Ge        0.149877290561351    0.239194328384287    0.105356206778670  0.0000
  Ge     Ge        0.280078800548757    0.387297156686307    0.334438117936064  0.0000
  Ge     Ge        0.685266429885607    0.401293531499284    0.688643037164654  0.0000
  Ge     Ge        0.682986583338243    0.604655716963553    0.668378442312684  0.0000
  Ge     Ge        0.273643422192485    0.588483774904838    0.312162928902602  0.0000
  Ge     Ge        0.781161346634774    0.893211608990762    0.335409127797380  0.0000
  Ge     Ge        0.181419783279305    0.908450029154192    0.693505579185098  0.0000
  Ge     Ge        0.370689925604399    0.404632857265529    0.698334419114008  0.0000
  Ge     Ge        0.596894894127973    0.385991889587025    0.330427275937628  0.0000
  Ge     Ge        0.589595804990612    0.589359680630044    0.310451019898581  0.0000
  Ge     Ge        0.368483338093450    0.607024640670789    0.676605104554252  0.0000
  Ge     Ge        0.869546554108204    0.909946237375448    0.702161704720309  0.0000
  Ge     Ge        0.095979523847740    0.889530375465002    0.336344239513669  0.0000
  Ge     Ge        0.085257335248981    0.091070429996571    0.317275678932527  0.0000
  Ge     Ge        0.864911039323200    0.110855187709974    0.671988406146447  0.0000
  Si     Si        0.857896091735227    0.259526389343749    0.894017797683909  0.0000
  Si     Si        0.174517275577773    0.108072841851749    0.662825465715828  0.0000
  Si     Si        0.772142082430351    0.089888510288576    0.318143703761146  0.0000
  O1     O1        0.526116245340396    0.235971410337221    0.947942135432764  0.0000
  O1     O1        0.537139828527157    0.759587488925459    0.949415016701018  0.0000
  O1     O1        0.034413165531012    0.750918520817844    0.948032065510945  0.0000
  O3     O3        0.020934544557164    0.256987124601710    0.944907189580664  0.0000
  O3     O3        0.292535854408068    0.164944049318889    0.764326979659342  0.0000
  O3     O3        0.665023802759474    0.148348533064074    0.205628061503591  0.0000
  O1     O1        0.664493604428650    0.821765794819162    0.238057124438009  0.0000
  O1     O1        0.313022012779469    0.857665786184586    0.813580235138446  0.0000
  O1     O1        0.809628899218813    0.667685840049018    0.771437540974923  0.0000
  O1     O1        0.155517053539197    0.652027726871352    0.198951005304828  0.0000
  O1     O1        0.159675477122150    0.318217412762826    0.235377885839195  0.0000
  O3     O3        0.810612479400052    0.348282546837269    0.818089562354850  0.0000
  O1     O1        0.309132975936375    0.341417449421391    0.812706185875443  0.0000
  O1     O1        0.664040471875448    0.324752451946013    0.215696334252354  0.0000
  O1     O1        0.649012859176986    0.645193402033946    0.185602802763877  0.0000
  O1     O1        0.301942877146699    0.680230210762723    0.773545681853713  0.0000
  O1     O1        0.804283804176083    0.844352370709173    0.809664953991588  0.0000
  O1     O1        0.170800045140733    0.827162827668899    0.231620808392844  0.0000
  O1     O1        0.134643642385110    0.144065848867417    0.183447402438428  0.0000
  O3     O3        0.802002698571890    0.185308411794029    0.771697211713638  0.0000
  O1     O1        0.297294017178793    0.235909040046498    0.050538749356892  0.0000
  O3     O3        0.807961037412683    0.244714209391150    0.041021437344754  0.0000
  O1     O1        0.811041536593045    0.739016855270965    0.056409066668551  0.0000
  O1     O1        0.313140712825642    0.749656454778547    0.056799601225383  0.0000
  O1     O1        0.422307871284728    0.382356131098374    0.269406735498533  0.0000
  O1     O1        0.545423872956935    0.406026865096035    0.756276852917406  0.0000
  O1     O1        0.543513708079296    0.609261707494914    0.737724096381800  0.0000
  O1     O1        0.415997928735676    0.583512308913864    0.247804067602107  0.0000
  O1     O1        0.921873777125199    0.884571368998438    0.269044340872270  0.0000
  O1     O1        0.044207291984465    0.908547484152725    0.765318678610134  0.0000
  O3     O3        0.040732679077480    0.112822036009799    0.722711342266851  0.0000
  O3     O3        0.910304427123030    0.084019741950459    0.267825278425113  0.0000
  O1     O1        0.325870526571710    0.363032965431464    0.520078452937273  0.0000
  O1     O1        0.647102300494138    0.354760151091818    0.514186891543581  0.0000
  O1     O1        0.637103812809451    0.635955911340247    0.484988439378032  0.0000
  O1     O1        0.320711945075590    0.630282308342163    0.490438743408032  0.0000
  O1     O1        0.826290695798039    0.871265080721679    0.521731625141473  0.0000
  O1     O1        0.141235717537590    0.860057363996418    0.520468016511630  0.0000
  O3     O3        0.138067392358518    0.139350115732511    0.492228601282833  0.0000
  O3     O3        0.804224842499505    0.130693165103500    0.483904350378175  0.0000
  O1     O1        0.213910074890188    0.487923999069141    0.316250809270377  0.0000
  O1     O1        0.739892524758835    0.502071409042337    0.673807814744899  0.0000
  O3     O3        0.715544397358286    0.995391866437892    0.317785308207938  0.0000
  O3     O3        0.224547949548757    0.011645376052604    0.666666101717470  0.0000
  O1     O1        0.313311570992163    0.506550566173822    0.700300041399347  0.0000
  O1     O1        0.651265149611766    0.487897133340175    0.322707073182388  0.0000
  O1     O1        0.814140827379344    0.012160694156457    0.708376628861419  0.0000
  O1     O1        0.148886447311693    0.991302194839866    0.323238436066053  0.0000
