data_c00142.vasp
_audit_creation_method             Generated by GULP
_audit_author_name                 Salvador R. G. Balestra
_symmetry_space_group_name_H-M     'P 1             '
_symmetry_Int_Tables_number        1

loop_
_symmetry_equiv_pos_site_id
_symmetry_equiv_pos_as_xyz
_cell_length_a                       10.2029
_cell_length_b                       15.8007
_cell_length_c                        9.2226
_cell_angle_alpha                   90.6686
_cell_angle_beta                   105.1774
_cell_angle_gamma                   90.0921

loop_
_atom_site_label
_atom_site_type_symbol
_atom_site_fract_x
_atom_site_fract_y
_atom_site_fract_z
_atom_site_charge
  Ge     Ge        0.351599999999962    0.244500000000016    0.893900000000031  0.0000
  Ge     Ge        0.658404846357565    0.235726414482026    0.106991188601016  0.0000
  Ge     Ge        0.652342157230979    0.727780683877821    0.120561334558252  0.0000
  Ge     Ge        0.363703821531947    0.758080085430583    0.898693073790205  0.0000
  Ge     Ge        0.854553088001928    0.740398802297944    0.909491252944406  0.0000
  Ge     Ge        0.165045146943398    0.729532523847303    0.112884439892444  0.0000
  Ge     Ge        0.145401102457355    0.231422731897491    0.103781447890324  0.0000
  Ge     Ge        0.280919184607910    0.378653322879688    0.335311063721681  0.0000
  Ge     Ge        0.680854106094443    0.401079938377264    0.697903619788114  0.0000
  Ge     Ge        0.678926099418181    0.603299559637701    0.659721579258842  0.0000
  Ge     Ge        0.774181621164128    0.877634374250038    0.353402434573174  0.0000
  Ge     Ge        0.182672730449925    0.902676134333940    0.698222721227599  0.0000
  Ge     Ge        0.176319073679768    0.105187547129008    0.657301670430989  0.0000
  Ge     Ge        0.760423213470794    0.077351651576626    0.316056940630804  0.0000
  Ge     Ge        0.364730751642542    0.404589373525396    0.701026641288453  0.0000
  Ge     Ge        0.594581562930520    0.381108725039790    0.334318652912003  0.0000
  Ge     Ge        0.354481317018275    0.605619571888030    0.664960760563067  0.0000
  Ge     Ge        0.871699844563453    0.903799368806927    0.721255000110187  0.0000
  Ge     Ge        0.087892675665301    0.875865049210389    0.340851955631055  0.0000
  Ge     Ge        0.076416018521723    0.077217854877329    0.301659612157968  0.0000
  Ge     Ge        0.863834022225501    0.105465383876818    0.680970564343118  0.0000
  Si     Si        0.854011522392443    0.255982824718751    0.898830492843352  0.0000
  Si     Si        0.270665456845834    0.574580236699712    0.318529644961886  0.0000
  Si     Si        0.583866967856692    0.577755984477934    0.314827048916188  0.0000
  O1     O1        0.526595118300474    0.243768702736367    0.951262522493702  0.0000
  O1     O1        0.537707916153042    0.754479508870176    0.955711465628338  0.0000
  O1     O1        0.029537253385952    0.732598895411594    0.959705335294185  0.0000
  O3     O3        0.017275931500846    0.256188694569296    0.946087573645679  0.0000
  O1     O1        0.304052970028826    0.169045621899854    0.754833682538757  0.0000
  O1     O1        0.648188996881208    0.142126313411228    0.198124803608059  0.0000
  O1     O1        0.661851160330175    0.801740245736331    0.259333818689297  0.0000
  O1     O1        0.316142591598381    0.853951299261903    0.818654944791628  0.0000
  O1     O1        0.796940236571202    0.671758777836015    0.761547036357733  0.0000
  O3     O3        0.176315650098138    0.628591264343133    0.188908016926906  0.0000
  O1     O1        0.160482918986978    0.307659712053141    0.241077514240246  0.0000
  O3     O3        0.802703295202728    0.344986058171384    0.825176533446297  0.0000
  O1     O1        0.301837212700907    0.341855081356440    0.816866253466850  0.0000
  O1     O1        0.673479704472979    0.317824428930596    0.233291275149738  0.0000
  O3     O3        0.604814317835437    0.630193533904516    0.175974218326954  0.0000
  O1     O1        0.296819847551119    0.679677405849659    0.768533103339748  0.0000
  O1     O1        0.815272990997349    0.841791458634122    0.843818372691486  0.0000
  O1     O1        0.159646945393223    0.805899496501044    0.243226724514255  0.0000
  O1     O1        0.124837191280075    0.132094973282415    0.165958117838873  0.0000
  O3     O3        0.797825398486449    0.180962075527870    0.778042617398504  0.0000
  O1     O1        0.292657633831001    0.226429159423600    0.046608214627186  0.0000
  O3     O3        0.807754492874948    0.238377930676340    0.049434830142434  0.0000
  O1     O1        0.801182646382470    0.718299557224741    0.066290954883014  0.0000
  O1     O1        0.311573601551413    0.745274751946894    0.059063989607895  0.0000
  O1     O1        0.421823693223081    0.367014432701739    0.267193793115233  0.0000
  O1     O1        0.539210387705705    0.408310175528315    0.763081790946883  0.0000
  O1     O1        0.528796687573462    0.613214932484640    0.709387429835824  0.0000
  O2     O2        0.425257398464886    0.560914385644590    0.306166572631749  0.0000
  O1     O1        0.913308408482646    0.871922146006475    0.280809771737495  0.0000
  O1     O1        0.046639174024524    0.906725347927556    0.775183095532671  0.0000
  O1     O1        0.038355641288537    0.110414445226163    0.731567629341227  0.0000
  O1     O1        0.903449345075655    0.066198382897251    0.253238272596573  0.0000
  O1     O1        0.325216680906347    0.359719273904993    0.523763011341771  0.0000
  O1     O1        0.642437525362276    0.356008225097727    0.521456032266160  0.0000
  O3     O3        0.652343037644526    0.626570111817305    0.469715846406697  0.0000
  O3     O3        0.282419241752002    0.622762006356794    0.475848178666327  0.0000
  O1     O1        0.821570733928284    0.860404290054162    0.542558228620566  0.0000
  O1     O1        0.134340175713202    0.850870176490199    0.527695100079420  0.0000
  O1     O1        0.128044630435813    0.131022823116530    0.470478312686424  0.0000
  O1     O1        0.804893254068372    0.123079195575101    0.492653754897920  0.0000
  O3     O3        0.212610308986156    0.480170428570177    0.314054531120258  0.0000
  O1     O1        0.739333286071381    0.502125560423433    0.687388360221958  0.0000
  O1     O1        0.700432791434494    0.976445667900767    0.325467284691577  0.0000
  O1     O1        0.232416807803558    0.002620416830970    0.666541872670425  0.0000
  O1     O1        0.305613095604915    0.505666834490098    0.701632995124029  0.0000
  O3     O3        0.645199165542259    0.484567212649913    0.314554274728393  0.0000
  O1     O1        0.813303409941497    0.005688981989418    0.718760077002166  0.0000
  O1     O1        0.142125223004794    0.976727846328981    0.316281985111632  0.0000
