data_c00186.vasp
_audit_creation_method             Generated by GULP
_audit_author_name                 Salvador R. G. Balestra
_symmetry_space_group_name_H-M     'P 1             '
_symmetry_Int_Tables_number        1

loop_
_symmetry_equiv_pos_site_id
_symmetry_equiv_pos_as_xyz
_cell_length_a                       10.2474
_cell_length_b                       15.8258
_cell_length_c                        9.3266
_cell_angle_alpha                   89.7996
_cell_angle_beta                   105.8862
_cell_angle_gamma                   89.8051

loop_
_atom_site_label
_atom_site_type_symbol
_atom_site_fract_x
_atom_site_fract_y
_atom_site_fract_z
_atom_site_charge
  Ge     Ge        0.351599999999962    0.244500000000016    0.893900000000031  0.0000
  Ge     Ge        0.658974543889060    0.251850834209032    0.109799059720455  0.0000
  Ge     Ge        0.629924586364654    0.763804482884551    0.107621041748503  0.0000
  Ge     Ge        0.325850924016139    0.743706301685322    0.896032619443711  0.0000
  Ge     Ge        0.833159204763353    0.753057047408621    0.901888912489252  0.0000
  Ge     Ge        0.132966417814541    0.740772517110516    0.115594995901797  0.0000
  Ge     Ge        0.154992680304181    0.257678139069395    0.109281902159214  0.0000
  Ge     Ge        0.726905967395873    0.394149558701012    0.682230055590487  0.0000
  Ge     Ge        0.721021777988794    0.596641907767465    0.690195715860872  0.0000
  Ge     Ge        0.316919116552948    0.599587980233138    0.333622613444913  0.0000
  Ge     Ge        0.813801672796931    0.903936523776550    0.328672318455219  0.0000
  Ge     Ge        0.238087834089019    0.088981289830201    0.691617640741512  0.0000
  Ge     Ge        0.827651199664995    0.109066606378142    0.342323533064735  0.0000
  Ge     Ge        0.407289246131736    0.391665543560487    0.668929469645769  0.0000
  Ge     Ge        0.639816173979747    0.404864506778378    0.319822998078924  0.0000
  Ge     Ge        0.627901877011758    0.608232646509522    0.325053589292328  0.0000
  Ge     Ge        0.404969200225768    0.594184662705717    0.690719365721270  0.0000
  Ge     Ge        0.907565078814850    0.900018288594097    0.683617631929801  0.0000
  Ge     Ge        0.126325420110379    0.900282693214881    0.317769532244688  0.0000
  Ge     Ge        0.141212666710382    0.102498214530997    0.327068270431677  0.0000
  Ge     Ge        0.923387949125781    0.103315982629961    0.697589533582894  0.0000
  Si     Si        0.857064370222259    0.249289689923279    0.905296179680308  0.0000
  Si     Si        0.331089082898866    0.399275386006954    0.321322433197016  0.0000
  Si     Si        0.214560445197465    0.893041131735693    0.675659090781126  0.0000
  O1     O1        0.484814835079143    0.253489230797214    0.047993775973092  0.0000
  O1     O1        0.455562071602549    0.762763268409952    0.052109781385868  0.0000
  O1     O1        0.958912549875954    0.745293486136144    0.065506923144841  0.0000
  O3     O3        0.978639693663617    0.264116610888201    0.053183943399433  0.0000
  O1     O1        0.360453607122136    0.150028178803322    0.804706264721456  0.0000
  O1     O1        0.700958778183321    0.168060719257029    0.229091173880908  0.0000
  O1     O1        0.681171304745230    0.853855815732373    0.208467213042811  0.0000
  O3     O3        0.318656723618903    0.823457989458657    0.765570510074908  0.0000
  O1     O1        0.836559437037765    0.665483449048945    0.794385845745604  0.0000
  O1     O1        0.181136222236507    0.651810595820477    0.221958556563258  0.0000
  O3     O3        0.212639640436910    0.348291742386593    0.208677471559208  0.0000
  O3     O3        0.847324211774099    0.325588022284690    0.788137811816806  0.0000
  O1     O1        0.334745967617399    0.324844368382795    0.766676302247393  0.0000
  O1     O1        0.706495867245886    0.344234724695675    0.206204686285859  0.0000
  O1     O1        0.691273466301358    0.678057948958736    0.221953949304485  0.0000
  O1     O1        0.342071362676356    0.649051864077256    0.814618292776542  0.0000
  O1     O1        0.846502500084561    0.843760282836121    0.806461640485154  0.0000
  O1     O1        0.193601633661998    0.829233611778225    0.220582934928365  0.0000
  O1     O1        0.206037194113243    0.170987207926695    0.222425761548476  0.0000
  O3     O3        0.871218994833666    0.160783339940497    0.828542227329308  0.0000
  O1     O1        0.205806394615509    0.249137096976255    0.951607536179708  0.0000
  O3     O3        0.718254754757675    0.245857132231773    0.954667839944396  0.0000
  O1     O1        0.682091395504215    0.758463764381412    0.948555935096799  0.0000
  O1     O1        0.180407378112728    0.739530288662202    0.953362738080316  0.0000
  O3     O3        0.463231027883508    0.402952129366572    0.260196256108847  0.0000
  O1     O1        0.581302021966324    0.391287202442876    0.739057334358686  0.0000
  O1     O1        0.578916940571349    0.593286206071813    0.754233637761836  0.0000
  O1     O1        0.453102651092910    0.612195527625028    0.262282210920192  0.0000
  O1     O1        0.951816607145701    0.900340515948167    0.257585158032261  0.0000
  O3     O3        0.084072842139507    0.897645644629327    0.740137290004578  0.0000
  O1     O1        0.096447576518202    0.096432044433114    0.755075480622334  0.0000
  O1     O1        0.967140165412369    0.110450839908271    0.274081218942463  0.0000
  O3     O3        0.371975831818869    0.357716237032982    0.485367708955762  0.0000
  O1     O1        0.693105104555578    0.366240920869343    0.498267505627650  0.0000
  O1     O1        0.672227321465346    0.633957530704493    0.510205842133813  0.0000
  O1     O1        0.354889534451187    0.636140185165175    0.513570695940807  0.0000
  O1     O1        0.850364172960560    0.861261472485585    0.505800994617714  0.0000
  O3     O3        0.163874582070299    0.869093265570180    0.502751953693877  0.0000
  O1     O1        0.199776946904723    0.126777237408929    0.512278701145894  0.0000
  O1     O1        0.872063702802473    0.146966072034574    0.522251319367194  0.0000
  O3     O3        0.279324137630063    0.493495106795871    0.339649167444970  0.0000
  O1     O1        0.786779261211027    0.496259371904675    0.697251504433704  0.0000
  O1     O1        0.771919214160381    0.007637317365056    0.347109545846713  0.0000
  O3     O3        0.287143254128087    0.984094696222994    0.691803332028401  0.0000
  O1     O1        0.348466777856636    0.491679537908088    0.683101103038663  0.0000
  O1     O1        0.687630774959396    0.507799090902906    0.310613663906660  0.0000
  O1     O1        0.857713584657520    0.003280725261095    0.689889442217952  0.0000
  O1     O1        0.185941045744416    0.999661899275372    0.300970402729529  0.0000
