data_c00128.vasp
_audit_creation_method             Generated by GULP
_audit_author_name                 Salvador R. G. Balestra
_symmetry_space_group_name_H-M     'P 1             '
_symmetry_Int_Tables_number        1

loop_
_symmetry_equiv_pos_site_id
_symmetry_equiv_pos_as_xyz
_cell_length_a                       10.2170
_cell_length_b                       15.8168
_cell_length_c                        9.2419
_cell_angle_alpha                   89.7226
_cell_angle_beta                   105.1814
_cell_angle_gamma                   89.0422

loop_
_atom_site_label
_atom_site_type_symbol
_atom_site_fract_x
_atom_site_fract_y
_atom_site_fract_z
_atom_site_charge
  Ge     Ge        0.351599999999962    0.244500000000016    0.893900000000031  0.0000
  Ge     Ge        0.653969921453516    0.267838374586069    0.099388269203770  0.0000
  Ge     Ge        0.661523982713950    0.769116264273876    0.114483940100179  0.0000
  Ge     Ge        0.351816528342464    0.760326486298865    0.907264904348618  0.0000
  Ge     Ge        0.857673945443848    0.744199326082997    0.896561171835400  0.0000
  Ge     Ge        0.146413208857598    0.771362476438287    0.114640019103345  0.0000
  Ge     Ge        0.148346096616332    0.264653266354080    0.105503186850029  0.0000
  Ge     Ge        0.265159018949379    0.421285404548347    0.309538326423537  0.0000
  Ge     Ge        0.675259338532269    0.394582876304777    0.663046869209543  0.0000
  Ge     Ge        0.681425569531861    0.597048748525546    0.696477998409834  0.0000
  Ge     Ge        0.274579489359829    0.622543434346802    0.347619560781916  0.0000
  Ge     Ge        0.173255642708719    0.894283985790142    0.654025734825821  0.0000
  Ge     Ge        0.180205941211651    0.096874783671246    0.687575403380296  0.0000
  Ge     Ge        0.772915547199861    0.119602372791170    0.334421267207258  0.0000
  Ge     Ge        0.360415852574265    0.397780192416850    0.674156532571834  0.0000
  Ge     Ge        0.581826819073003    0.418459824199649    0.304865643382942  0.0000
  Ge     Ge        0.588686611561505    0.621567604749747    0.338896664430541  0.0000
  Ge     Ge        0.368593537519706    0.598986772796386    0.713447359681842  0.0000
  Ge     Ge        0.852495295530713    0.898875409896499    0.670776636008318  0.0000
  Ge     Ge        0.084704404854656    0.116474373394210    0.326958682831067  0.0000
  Ge     Ge        0.866996771919902    0.100257847183640    0.701744976696930  0.0000
  Si     Si        0.853514233393945    0.257755806673533    0.892852123576781  0.0000
  Si     Si        0.762963048877788    0.924487934333156    0.322333029683571  0.0000
  Si     Si        0.073878353454665    0.919712298807264    0.311047291659112  0.0000
  O1     O1        0.525521081470180    0.247235262072853    0.945170917879718  0.0000
  O1     O1        0.526214616888554    0.768077331619593    0.961095429583885  0.0000
  O1     O1        0.031826800756891    0.744980694183698    0.950961764814037  0.0000
  O3     O3        0.017006303191945    0.260525333070842    0.944496821211178  0.0000
  O1     O1        0.306097696263803    0.149780209393715    0.809141534225819  0.0000
  O1     O1        0.657982985892465    0.192260730999573    0.234958899091388  0.0000
  O3     O3        0.668171801537278    0.867892173760879    0.198285694785308  0.0000
  O1     O1        0.294288235069007    0.827817379427487    0.757815641025424  0.0000
  O1     O1        0.810825741806045    0.648982474337550    0.814996784243138  0.0000
  O1     O1        0.159485304860250    0.696872551241155    0.252101191083186  0.0000
  O1     O1        0.145243438149067    0.358217461530741    0.198893463989703  0.0000
  O3     O3        0.801963128212457    0.329162657893820    0.766375258759092  0.0000
  O1     O1        0.290745524544568    0.325897088935899    0.768015336857949  0.0000
  O1     O1        0.639962489740823    0.365722652642049    0.172837095259240  0.0000
  O1     O1        0.659828172682725    0.689259730127270    0.238829282989872  0.0000
  O1     O1        0.313025438008600    0.659762025555160    0.839016252590364  0.0000
  O1     O1        0.793247456491206    0.825831523323388    0.772907834455947  0.0000
  O3     O3        0.094320260063976    0.868055717782334    0.170906644539168  0.0000
  O1     O1        0.158717668461259    0.179256226603202    0.222553064496925  0.0000
  O3     O3        0.808247144775587    0.166941086565981    0.819551457914252  0.0000
  O1     O1        0.296941708659962    0.259552006987156    0.051314303247684  0.0000
  O3     O3        0.801850166562213    0.271183020175684    0.040035945188585  0.0000
  O1     O1        0.807383454878761    0.756220463513631    0.058301816849921  0.0000
  O1     O1        0.295261425630294    0.782351311990914    0.061943290345827  0.0000
  O1     O1        0.407884893131320    0.425546763931469    0.244824892951442  0.0000
  O1     O1        0.535547442153046    0.392253429989165    0.732686975210545  0.0000
  O1     O1        0.543205740050760    0.594435609214480    0.769213854057320  0.0000
  O1     O1        0.414518147597777    0.627101294178802    0.276834904525249  0.0000
  O2     O2        0.915606911474442    0.937144689009847    0.304647921415232  0.0000
  O1     O1        0.026163418264260    0.887244778986404    0.709933099676332  0.0000
  O1     O1        0.040438590652943    0.093976446070535    0.757541565784987  0.0000
  O1     O1        0.912287793624869    0.129678586700257    0.264895576236100  0.0000
  O1     O1        0.313081936226654    0.377430208428324    0.486446096789741  0.0000
  O1     O1        0.631522347189750    0.367827282629830    0.476731020223033  0.0000
  O1     O1        0.634792141534188    0.647391706201593    0.525037989461955  0.0000
  O1     O1        0.319466860586049    0.642811377316469    0.535519766408441  0.0000
  O3     O3        0.777677191446857    0.880908889531516    0.482878777378284  0.0000
  O3     O3        0.142385670406664    0.869461721974693    0.464352621414873  0.0000
  O1     O1        0.136557187912407    0.143370414366913    0.512722153307893  0.0000
  O1     O1        0.816889442926839    0.140390158635598    0.522296745882117  0.0000
  O1     O1        0.206736253264431    0.523006036912976    0.319363922661694  0.0000
  O1     O1        0.734411625983153    0.495893186131155    0.673530431674826  0.0000
  O3     O3        0.703193113707882    0.019297346010569    0.314011780896415  0.0000
  O1     O1        0.233765069805802    0.994822682755151    0.673926162733877  0.0000
  O1     O1        0.307772617482192    0.498501759828846    0.706224722763635  0.0000
  O1     O1        0.642536429105443    0.519546013175658    0.320840608681369  0.0000
  O1     O1        0.808356348906446    0.999916779715300    0.710125764554755  0.0000
  O3     O3        0.135517647883606    0.012123592704256    0.310685861301661  0.0000
