data_c00162.vasp
_audit_creation_method             Generated by GULP
_audit_author_name                 Salvador R. G. Balestra
_symmetry_space_group_name_H-M     'P 1             '
_symmetry_Int_Tables_number        1

loop_
_symmetry_equiv_pos_site_id
_symmetry_equiv_pos_as_xyz
_cell_length_a                       10.2239
_cell_length_b                       15.8388
_cell_length_c                        9.3009
_cell_angle_alpha                   89.6639
_cell_angle_beta                   105.5474
_cell_angle_gamma                   89.0157

loop_
_atom_site_label
_atom_site_type_symbol
_atom_site_fract_x
_atom_site_fract_y
_atom_site_fract_z
_atom_site_charge
  Ge     Ge        0.351599999999962    0.244500000000016    0.893900000000031  0.0000
  Ge     Ge        0.659524780520522    0.256956192168684    0.100667451650134  0.0000
  Ge     Ge        0.669729524887297    0.752593643815986    0.111713415087018  0.0000
  Ge     Ge        0.366556692031307    0.755482318509794    0.894761769326050  0.0000
  Ge     Ge        0.865926062960658    0.740021962812107    0.896248498963169  0.0000
  Ge     Ge        0.164611879807441    0.763117639516304    0.104035287871996  0.0000
  Ge     Ge        0.142392950828592    0.261998688847030    0.096571966261810  0.0000
  Ge     Ge        0.275143648388049    0.410672645101965    0.308265741833032  0.0000
  Ge     Ge        0.690523523667940    0.590193982595679    0.694048934442248  0.0000
  Ge     Ge        0.290387705464536    0.613396191035502    0.333227246075227  0.0000
  Ge     Ge        0.769792042889160    0.909719323114065    0.319611813058397  0.0000
  Ge     Ge        0.184265601545647    0.896229751638522    0.664121486581708  0.0000
  Ge     Ge        0.179611890381509    0.100088911650088    0.677306626785083  0.0000
  Ge     Ge        0.767528933181539    0.108701276376786    0.336530389532106  0.0000
  Ge     Ge        0.362913919037310    0.395496807254233    0.667920600582716  0.0000
  Ge     Ge        0.596182507262763    0.403987213017319    0.316568997252250  0.0000
  Ge     Ge        0.605792529331625    0.606712987838927    0.334631562701631  0.0000
  Ge     Ge        0.376733905734835    0.596376702428421    0.696769650523883  0.0000
  Ge     Ge        0.874300031987494    0.898496218727487    0.686197584128688  0.0000
  Ge     Ge        0.084316457295770    0.911255875160311    0.308503565952207  0.0000
  Ge     Ge        0.084323657301773    0.113957359967622    0.324890066657256  0.0000
  Si     Si        0.850605528180180    0.251243122691483    0.884807049012423  0.0000
  Si     Si        0.675044764023962    0.392029717184758    0.667537677174539  0.0000
  Si     Si        0.871080877081140    0.096409513294448    0.693124116322030  0.0000
  O1     O1        0.525836073904525    0.245725401862644    0.947896490164687  0.0000
  O1     O1        0.541613714311898    0.752068646169880    0.950569172446172  0.0000
  O1     O1        0.040474289911162    0.740530014332275    0.945873806207909  0.0000
  O3     O3        0.011766878321724    0.265006186509518    0.933693866308309  0.0000
  O1     O1        0.301248603977220    0.151190817791722    0.806468015608507  0.0000
  O1     O1        0.655342865100075    0.180871842279601    0.232767202383983  0.0000
  O1     O1        0.657268328705210    0.841680315011637    0.213263295299518  0.0000
  O1     O1        0.316853992858005    0.836736424674628    0.768775200970989  0.0000
  O1     O1        0.817708669930611    0.646089347852149    0.808650934512773  0.0000
  O1     O1        0.173822860160544    0.686082603719544    0.237658176798454  0.0000
  O1     O1        0.147944211152106    0.353366140561409    0.195749738763941  0.0000
  O2     O2        0.780573071024380    0.326605360917130    0.773251033993112  0.0000
  O1     O1        0.297272499887718    0.327966796510778    0.771536655651923  0.0000
  O1     O1        0.662438911191296    0.350481740463792    0.192773996177603  0.0000
  O1     O1        0.679111828977994    0.666567375777435    0.226681335664916  0.0000
  O1     O1        0.312160826724018    0.661657318632216    0.807417959101485  0.0000
  O1     O1        0.806740707875975    0.827390675008180    0.783346109890177  0.0000
  O1     O1        0.140852205457259    0.859518829405090    0.175699879374664  0.0000
  O1     O1        0.142643366785306    0.174866771210528    0.204993859994173  0.0000
  O2     O2        0.819308055314021    0.160949134997451    0.801977055223270  0.0000
  O1     O1        0.292925546776736    0.256335301130936    0.047211237881268  0.0000
  O3     O3        0.804175849661978    0.250576640485791    0.036044473778422  0.0000
  O1     O1        0.818436995342561    0.750219553923763    0.058414502528134  0.0000
  O1     O1        0.314276053315065    0.766948998569421    0.053048498869139  0.0000
  O1     O1        0.422160322317685    0.406383916154247    0.251321078761622  0.0000
  O3     O3        0.539432169079944    0.396266707694829    0.723005447041149  0.0000
  O1     O1        0.551356151869244    0.593224231411911    0.762966560309835  0.0000
  O1     O1        0.432032910118707    0.614173187178547    0.266270966239401  0.0000
  O1     O1        0.910205409568096    0.915907982167975    0.252441194766672  0.0000
  O1     O1        0.048706962837336    0.889772484659212    0.740625027722176  0.0000
  O3     O3        0.033785349750127    0.092781964974535    0.737999875508171  0.0000
  O1     O1        0.910459812247658    0.114476549279815    0.273976137018114  0.0000
  O1     O1        0.310409820407720    0.367805717666142    0.485060138514859  0.0000
  O3     O3        0.640364030838073    0.361620813773559    0.497080325935232  0.0000
  O1     O1        0.652426569414489    0.635432660000532    0.518926836170928  0.0000
  O1     O1        0.339513380038115    0.637539066314020    0.518563678233960  0.0000
  O1     O1        0.820961083571838    0.874229581657469    0.500878989466444  0.0000
  O1     O1        0.136802080661218    0.863286997651955    0.481620311554835  0.0000
  O1     O1        0.142186206410891    0.148950797908720    0.505938823839501  0.0000
  O3     O3        0.813674393809000    0.130744821660298    0.525199000102198  0.0000
  O1     O1        0.223576151205313    0.513838860630775    0.312585804705880  0.0000
  O3     O3        0.738109652537389    0.484891224902388    0.680266425333026  0.0000
  O1     O1        0.700576002867572    0.009780682316008    0.313977131893490  0.0000
  O1     O1        0.234827975918546    0.998835672056726    0.662304095222940  0.0000
  O1     O1        0.311483897276629    0.497347737686319    0.692084491614820  0.0000
  O1     O1        0.657352794546454    0.503735128118562    0.325517277174780  0.0000
  O3     O3        0.821110857228067    0.001933668580679    0.708985327847056  0.0000
  O1     O1        0.143794932985258    0.012290633261634    0.321094273818415  0.0000
