data_c00105.vasp
_audit_creation_method             Generated by GULP
_audit_author_name                 Salvador R. G. Balestra
_symmetry_space_group_name_H-M     'P 1             '
_symmetry_Int_Tables_number        1

loop_
_symmetry_equiv_pos_site_id
_symmetry_equiv_pos_as_xyz
_cell_length_a                       10.2834
_cell_length_b                       15.8190
_cell_length_c                        9.2301
_cell_angle_alpha                   91.1138
_cell_angle_beta                   105.3205
_cell_angle_gamma                   89.5995

loop_
_atom_site_label
_atom_site_type_symbol
_atom_site_fract_x
_atom_site_fract_y
_atom_site_fract_z
_atom_site_charge
  Ge     Ge        0.351599999999962    0.244500000000016    0.893900000000031  0.0000
  Ge     Ge        0.657419739933488    0.239034052456405    0.108013778191752  0.0000
  Ge     Ge        0.653276338462530    0.735841079697568    0.104825037033657  0.0000
  Ge     Ge        0.354081804936886    0.758205869691985    0.892579891041417  0.0000
  Ge     Ge        0.850107607075586    0.746204972450689    0.888945921337376  0.0000
  Ge     Ge        0.151906231135938    0.737125270487950    0.100206882676334  0.0000
  Ge     Ge        0.139311620838936    0.233926320503661    0.095997059044880  0.0000
  Ge     Ge        0.278287967039233    0.378679894788572    0.334361820901177  0.0000
  Ge     Ge        0.677592046445996    0.401053484389773    0.682376065941057  0.0000
  Ge     Ge        0.673906207669282    0.602350709005863    0.658300062238830  0.0000
  Ge     Ge        0.265739994892948    0.580798005162780    0.300436607274190  0.0000
  Ge     Ge        0.770268819454891    0.888746136764952    0.331805678547236  0.0000
  Ge     Ge        0.174079651661933    0.904156496438912    0.687633400450262  0.0000
  Ge     Ge        0.172097465619778    0.107742191679725    0.654292684327662  0.0000
  Ge     Ge        0.364437466612485    0.403303644844847    0.696744634309198  0.0000
  Ge     Ge        0.576364495960281    0.582359047728064    0.297676596149819  0.0000
  Ge     Ge        0.361600672143019    0.604516552860210    0.666525308476469  0.0000
  Ge     Ge        0.862411984771045    0.908293055043960    0.700165025691256  0.0000
  Ge     Ge        0.083030756109540    0.883476202927022    0.329342803210238  0.0000
  Ge     Ge        0.071108856425920    0.085230319051530    0.300569978125191  0.0000
  Ge     Ge        0.860535334013174    0.108927685833226    0.674578723958136  0.0000
  Si     Si        0.848322416278202    0.259584837053421    0.892755944086951  0.0000
  Si     Si        0.764668001176365    0.085125771606564    0.315969012963290  0.0000
  Si     Si        0.586775401539786    0.382546543285823    0.329580835902644  0.0000
  O1     O1        0.524736510364328    0.237199352461152    0.953405525359761  0.0000
  O1     O1        0.527261203551174    0.755664204385727    0.946105218950241  0.0000
  O1     O1        0.024189922910404    0.743368748858001    0.939880053955398  0.0000
  O3     O3        0.010478888885048    0.260151076080223    0.941283155198438  0.0000
  O1     O1        0.300074851070378    0.169828119691783    0.754259833133848  0.0000
  O3     O3        0.660436894570730    0.147073361636332    0.208049349508187  0.0000
  O1     O1        0.655917030757701    0.815706750944099    0.235443148363990  0.0000
  O1     O1        0.302381487226955    0.853255531245638    0.811079905878276  0.0000
  O1     O1        0.797391065800500    0.668931412221756    0.754676716530128  0.0000
  O1     O1        0.144809949256424    0.643228703959669    0.189775883280267  0.0000
  O1     O1        0.160085464933719    0.309028244483192    0.236334954708976  0.0000
  O3     O3        0.800134257494520    0.346032544555643    0.808874387954720  0.0000
  O1     O1        0.308985322074756    0.343316754765171    0.820221680789689  0.0000
  O3     O3        0.654265433260943    0.323922007908485    0.226983623633289  0.0000
  O1     O1        0.640732428763786    0.637510145529231    0.175653562075738  0.0000
  O1     O1        0.294242852132714    0.678130024098174    0.762841893642866  0.0000
  O1     O1        0.800672558798820    0.843651185270920    0.812314173955192  0.0000
  O1     O1        0.156268536942670    0.819586734586172    0.223953970208336  0.0000
  O1     O1        0.112002172940120    0.136258784426192    0.157893695179872  0.0000
  O3     O3        0.793863091702693    0.182660666710650    0.775076118434893  0.0000
  O1     O1        0.286725627980914    0.228416620478862    0.042514431062211  0.0000
  O3     O3        0.801255396774329    0.248783864676876    0.044502547001638  0.0000
  O1     O1        0.800288472815614    0.732480874614050    0.048872711236347  0.0000
  O1     O1        0.301870070452833    0.742838972030253    0.050947849555526  0.0000
  O3     O3        0.424465385426281    0.375312057085340    0.272826163232772  0.0000
  O1     O1        0.538021866773617    0.406264505462949    0.749352878620100  0.0000
  O1     O1        0.535323118509517    0.607026053383678    0.729229792160452  0.0000
  O1     O1        0.404971583412306    0.580173147566712    0.229881855713634  0.0000
  O1     O1        0.910001768958264    0.879214236198822    0.263922567436645  0.0000
  O1     O1        0.035874145494248    0.909915405189071    0.758463303536848  0.0000
  O1     O1        0.033359928079055    0.115105139327650    0.725859618852629  0.0000
  O3     O3        0.897729034659185    0.075325308209556    0.257263241335804  0.0000
  O1     O1        0.315396849370567    0.356613348927208    0.520752055949006  0.0000
  O3     O3        0.634348791444328    0.355609891378767    0.503209172714631  0.0000
  O1     O1        0.625244280592985    0.629570500913085    0.472344504798012  0.0000
  O1     O1        0.316062944554809    0.624596341939177    0.478555404321292  0.0000
  O1     O1        0.815064119817205    0.868073217586587    0.519484181313730  0.0000
  O1     O1        0.129354248640550    0.854294381273438    0.514249619212326  0.0000
  O1     O1        0.128365367524911    0.137767845113018    0.469359481280135  0.0000
  O3     O3        0.805645941553496    0.125355421597876    0.483446246855443  0.0000
  O1     O1        0.212318691935519    0.479392282723022    0.308494025452694  0.0000
  O1     O1        0.736478300360042    0.500842554694924    0.672861820088909  0.0000
  O3     O3        0.704571649146824    0.991355460218817    0.314753513755310  0.0000
  O1     O1        0.224690344293343    0.004529137524708    0.661713692038883  0.0000
  O1     O1        0.305413397485649    0.504779206106118    0.692650344681168  0.0000
  O3     O3        0.632754274750604    0.478417267085813    0.317062247846538  0.0000
  O1     O1        0.807548643014527    0.010468455066375    0.708729539288874  0.0000
  O1     O1        0.136068037681910    0.985188560854224    0.315141835499996  0.0000
