data_c00104.vasp
_audit_creation_method             Generated by GULP
_audit_author_name                 Salvador R. G. Balestra
_symmetry_space_group_name_H-M     'P 1             '
_symmetry_Int_Tables_number        1

loop_
_symmetry_equiv_pos_site_id
_symmetry_equiv_pos_as_xyz
_cell_length_a                       10.1156
_cell_length_b                       15.7541
_cell_length_c                        9.2599
_cell_angle_alpha                   90.0170
_cell_angle_beta                   104.8446
_cell_angle_gamma                   90.7810

loop_
_atom_site_label
_atom_site_type_symbol
_atom_site_fract_x
_atom_site_fract_y
_atom_site_fract_z
_atom_site_charge
  Ge     Ge        0.351599999999962    0.244500000000016    0.893900000000031  0.0000
  Ge     Ge        0.641729558576917    0.222478663981404    0.111743860939189  0.0000
  Ge     Ge        0.619372958452722    0.739625968350067    0.123485485789117  0.0000
  Ge     Ge        0.320909084342281    0.745281093925596    0.898740719207846  0.0000
  Ge     Ge        0.819629324238020    0.750130012655039    0.903947035311896  0.0000
  Ge     Ge        0.119803894989945    0.721240438447205    0.108512168528792  0.0000
  Ge     Ge        0.132474242776076    0.237841895710187    0.088919028224412  0.0000
  Ge     Ge        0.311561624561107    0.369170833924251    0.345755990917869  0.0000
  Ge     Ge        0.730826967575602    0.404738680563129    0.678741031869782  0.0000
  Ge     Ge        0.705814334188196    0.599756993637154    0.672726567456567  0.0000
  Ge     Ge        0.306429283943763    0.578658252040608    0.317293285992124  0.0000
  Ge     Ge        0.801276851617893    0.880335813131721    0.351808996568577  0.0000
  Ge     Ge        0.215457068325046    0.902741864759995    0.692089963859358  0.0000
  Ge     Ge        0.214732781510539    0.103780617793729    0.652660715174982  0.0000
  Ge     Ge        0.401541607965436    0.398599110122680    0.685602236063661  0.0000
  Ge     Ge        0.637105233537407    0.377866719477302    0.331599690942971  0.0000
  Ge     Ge        0.388503554225004    0.597758502769250    0.675149980532393  0.0000
  Ge     Ge        0.897143215301897    0.904997837875878    0.709316299217515  0.0000
  Ge     Ge        0.115262286954247    0.874939939350180    0.331385876307368  0.0000
  Ge     Ge        0.116252009816076    0.078518891300625    0.293360512314589  0.0000
  Ge     Ge        0.899039532043205    0.105724028334397    0.668882725738005  0.0000
  Si     Si        0.825442732803802    0.246633578667926    0.889306165490638  0.0000
  Si     Si        0.810737583465363    0.080260477752421    0.320223351611782  0.0000
  Si     Si        0.613705079621716    0.578714682570355    0.309350918075498  0.0000
  O1     O1        0.466577149619531    0.214406431164234    0.054392353277303  0.0000
  O1     O1        0.443881675754818    0.739804643207362    0.063763346369785  0.0000
  O1     O1        0.944255903911556    0.720521171799118    0.058222038870872  0.0000
  O3     O3        0.955028710923656    0.241071948621802    0.029353960303254  0.0000
  O1     O1        0.335360711673678    0.174372176513929    0.749558145682555  0.0000
  O3     O3        0.690125058519760    0.131776528812833    0.212924448336649  0.0000
  O1     O1        0.667833516817391    0.820726918214747    0.250680382616242  0.0000
  O1     O1        0.331924906645551    0.839956428358395    0.808492891003948  0.0000
  O1     O1        0.810323003370159    0.681778215772149    0.756738710663419  0.0000
  O1     O1        0.176594697642245    0.626285483562401    0.190030929039035  0.0000
  O1     O1        0.184918181183329    0.312345735449179    0.226085656399010  0.0000
  O3     O3        0.812781841485261    0.341972161667688    0.823665181396414  0.0000
  O1     O1        0.406414717429162    0.341471321036702    0.842736015362565  0.0000
  O1     O1        0.695818694143502    0.312721717971173    0.214092674914276  0.0000
  O3     O3        0.677194398135393    0.644413583254649    0.212304435869291  0.0000
  O1     O1        0.314925008036442    0.662990223078780    0.777694886622476  0.0000
  O1     O1        0.846420332043271    0.851040496480998    0.845813039123581  0.0000
  O1     O1        0.181472597141651    0.801991130047215    0.235302998579964  0.0000
  O1     O1        0.169396799467728    0.137997726441909    0.163936061254591  0.0000
  O3     O3        0.828355598396642    0.182625438155037    0.756205418674499  0.0000
  O1     O1        0.197845619380205    0.255988100180661    0.939526033434926  0.0000
  O3     O3        0.691249363754893    0.226216660680954    0.945884231121841  0.0000
  O1     O1        0.671892417699953    0.751650339802937    0.963538368330004  0.0000
  O1     O1        0.167177894353143    0.740361317657613    0.946935589028915  0.0000
  O1     O1        0.465932417009297    0.353257692542533    0.303555668542174  0.0000
  O1     O1        0.558546281259492    0.423778617843014    0.653847921543158  0.0000
  O1     O1        0.563576101944103    0.606302118186059    0.741542571156010  0.0000
  O3     O3        0.449999713404650    0.581685547227371    0.247836449924481  0.0000
  O1     O1        0.938653099661990    0.867149766772778    0.278244513250146  0.0000
  O1     O1        0.071929902031745    0.914185400021098    0.756503586235782  0.0000
  O1     O1        0.074331461908195    0.109969510141772    0.725830124140108  0.0000
  O3     O3        0.938544288441651    0.074664013306296    0.247763855528558  0.0000
  O1     O1        0.319460333939478    0.342117796945526    0.528173964479879  0.0000
  O1     O1        0.735252544033720    0.361512272438925    0.509911250584211  0.0000
  O3     O3        0.652736811537452    0.609143782646109    0.480925891135306  0.0000
  O1     O1        0.337953726639127    0.626030813955694    0.489689411043190  0.0000
  O1     O1        0.839908470692565    0.855402259391228    0.538422329103990  0.0000
  O1     O1        0.165706449282281    0.855458735250083    0.518826595141440  0.0000
  O1     O1        0.174914254981276    0.125805685152126    0.465718383311089  0.0000
  O3     O3        0.858442568943761    0.127441783717811    0.479568346367338  0.0000
  O1     O1        0.267392148578695    0.474123420878604    0.336336012387197  0.0000
  O1     O1        0.794862720207131    0.506469820920708    0.711176347693247  0.0000
  O3     O3        0.757497498180760    0.986741946283702    0.345728488913956  0.0000
  O1     O1        0.279027198490439    0.002601894410340    0.675488612970860  0.0000
  O1     O1        0.332750510848094    0.496011086682337    0.698896616313213  0.0000
  O3     O3        0.663575687599520    0.483958563467487    0.293627410711484  0.0000
  O1     O1        0.838582582814423    0.007975747356920    0.702289662622440  0.0000
  O1     O1        0.169146535916930    0.975860227579961    0.297313389317533  0.0000
