data_c00127.vasp
_audit_creation_method             Generated by GULP
_audit_author_name                 Salvador R. G. Balestra
_symmetry_space_group_name_H-M     'P 1             '
_symmetry_Int_Tables_number        1

loop_
_symmetry_equiv_pos_site_id
_symmetry_equiv_pos_as_xyz
_cell_length_a                       10.2485
_cell_length_b                       15.8417
_cell_length_c                        9.3135
_cell_angle_alpha                   89.7391
_cell_angle_beta                   105.4721
_cell_angle_gamma                   90.1997

loop_
_atom_site_label
_atom_site_type_symbol
_atom_site_fract_x
_atom_site_fract_y
_atom_site_fract_z
_atom_site_charge
  Ge     Ge        0.351599999999962    0.244500000000016    0.893900000000031  0.0000
  Ge     Ge        0.658901172192693    0.238114857968643    0.101369609469136  0.0000
  Ge     Ge        0.663278587145593    0.754672300336777    0.111548122945516  0.0000
  Ge     Ge        0.363218603971058    0.743037899437522    0.899442214479925  0.0000
  Ge     Ge        0.855750861621656    0.742491841347772    0.892306638696419  0.0000
  Ge     Ge        0.158656951052520    0.744921910018868    0.106553584924861  0.0000
  Ge     Ge        0.145286534244522    0.250470456134067    0.103143156511647  0.0000
  Ge     Ge        0.326334182029767    0.395542563804736    0.318078249602825  0.0000
  Ge     Ge        0.731271063696512    0.384184580917605    0.673600537689929  0.0000
  Ge     Ge        0.746117980488106    0.584949103997012    0.685643335231221  0.0000
  Ge     Ge        0.335722772659448    0.600892276587413    0.332568983103010  0.0000
  Ge     Ge        0.239220788548202    0.891439626919737    0.670964060503213  0.0000
  Ge     Ge        0.238730567395938    0.092636435018793    0.674742528331735  0.0000
  Ge     Ge        0.834250870524670    0.097153421422350    0.329872337995470  0.0000
  Ge     Ge        0.415346814201190    0.390879380450268    0.674358750543393  0.0000
  Ge     Ge        0.640474149570172    0.393571452698053    0.308736599930886  0.0000
  Ge     Ge        0.648792283453852    0.596980917504015    0.320947680468092  0.0000
  Ge     Ge        0.430647883042791    0.593120395803564    0.688283860500267  0.0000
  Ge     Ge        0.922418301719449    0.890954544465262    0.670822436386183  0.0000
  Ge     Ge        0.143061615022103    0.901497538446493    0.309377101987183  0.0000
  Ge     Ge        0.923220720386074    0.093361997332762    0.685034052684861  0.0000
  Si     Si        0.851534946923507    0.236928759133786    0.891734931054941  0.0000
  Si     Si        0.838753084536771    0.896788197088348    0.321406907312176  0.0000
  Si     Si        0.140340043753038    0.100447942588682    0.319765618203562  0.0000
  O1     O1        0.484999023266278    0.238356629163512    0.048581803618201  0.0000
  O1     O1        0.489032265699542    0.759245929259437    0.059466913597062  0.0000
  O1     O1        0.984502149495056    0.743552492275591    0.051673018642159  0.0000
  O3     O3        0.970059066317607    0.252968162220121    0.041014239781729  0.0000
  O1     O1        0.355030572348588    0.161101708631169    0.776540274223636  0.0000
  O1     O1        0.706389472639014    0.150726773508325    0.211716296569522  0.0000
  O3     O3        0.718745262345364    0.844575900165455    0.214053854430742  0.0000
  O1     O1        0.357271643965057    0.823369774074019    0.773243362926857  0.0000
  O1     O1        0.862735722914713    0.650996614502228    0.795276727359358  0.0000
  O1     O1        0.209540936267516    0.662723556595550    0.227717025477022  0.0000
  O1     O1        0.196712168334397    0.341253146373089    0.200271373636235  0.0000
  O3     O3        0.846746593136767    0.311756249242769    0.772938952693898  0.0000
  O1     O1        0.347896204439575    0.336228039177697    0.795301572048861  0.0000
  O1     O1        0.709501051224554    0.328602841688616    0.202208809289492  0.0000
  O1     O1        0.716307286186759    0.666182260739903    0.218782655196369  0.0000
  O1     O1        0.376017749888509    0.648052052859742    0.817774809314699  0.0000
  O1     O1        0.851268948829375    0.826807409013961    0.775426678069388  0.0000
  O1     O1        0.206877272832897    0.840385383441010    0.194953324324207  0.0000
  O3     O3        0.200099282876153    0.164622622221403    0.220635485558213  0.0000
  O3     O3        0.867475256444800    0.148542620100338    0.816194161085835  0.0000
  O1     O1        0.204978160526517    0.241194222462423    0.950078560287306  0.0000
  O3     O3        0.712015799963172    0.235636613851238    0.940550306194857  0.0000
  O1     O1        0.708641676951272    0.748549337623472    0.948349992687922  0.0000
  O1     O1        0.213282159254030    0.738863476414835    0.949768248301315  0.0000
  O1     O1        0.466205151057091    0.393163248454670    0.249041594926458  0.0000
  O1     O1        0.589429477715975    0.387306695358009    0.737629552820011  0.0000
  O1     O1        0.603400974084930    0.585157081323051    0.749274680733204  0.0000
  O1     O1        0.474648292778389    0.602898686670430    0.262073760374211  0.0000
  O3     O3        0.967459775534462    0.896999112196987    0.253516290492973  0.0000
  O1     O1        0.096068538488023    0.888739412159032    0.734346877289159  0.0000
  O1     O1        0.096418806890542    0.091142178452960    0.738965558581804  0.0000
  O3     O3        0.977364471495395    0.105010158966586    0.265674586808453  0.0000
  O1     O1        0.366314240715193    0.353198768056666    0.494978715057785  0.0000
  O1     O1        0.684993458358904    0.357129143527991    0.489339114498432  0.0000
  O1     O1        0.700981737259456    0.622462843891696    0.505864997959125  0.0000
  O1     O1        0.382968841297455    0.637304316203851    0.513076366670957  0.0000
  O3     O3        0.881255035833246    0.857211560473770    0.486784665390194  0.0000
  O1     O1        0.198901991692137    0.863114820873032    0.486892758553006  0.0000
  O3     O3        0.187504200046841    0.127088162347750    0.491621561820911  0.0000
  O1     O1        0.865627289401937    0.134941220247786    0.508539149571422  0.0000
  O1     O1        0.279037773030587    0.498630250145856    0.329538514430044  0.0000
  O1     O1        0.804002751302893    0.483165831751071    0.689437927938236  0.0000
  O3     O3        0.790530026201669    0.992068011719323    0.335990820958079  0.0000
  O1     O1        0.302880659701482    0.992692378220793    0.685183820379982  0.0000
  O1     O1        0.362569352134285    0.493385912912712    0.672732478871462  0.0000
  O1     O1        0.697855291871658    0.494901530908879    0.300415947342156  0.0000
  O1     O1        0.865696410183291    0.991500355292385    0.683459071631759  0.0000
  O3     O3        0.191581719540096    0.005945335052356    0.303259069068568  0.0000
