data_c00172.vasp
_audit_creation_method             Generated by GULP
_audit_author_name                 Salvador R. G. Balestra
_symmetry_space_group_name_H-M     'P 1             '
_symmetry_Int_Tables_number        1

loop_
_symmetry_equiv_pos_site_id
_symmetry_equiv_pos_as_xyz
_cell_length_a                       10.2555
_cell_length_b                       15.8419
_cell_length_c                        9.2777
_cell_angle_alpha                   90.6253
_cell_angle_beta                   105.9633
_cell_angle_gamma                   89.4986

loop_
_atom_site_label
_atom_site_type_symbol
_atom_site_fract_x
_atom_site_fract_y
_atom_site_fract_z
_atom_site_charge
  Ge     Ge        0.351599999999962    0.244500000000016    0.893900000000031  0.0000
  Ge     Ge        0.660192269320319    0.239435169281285    0.107112469076742  0.0000
  Ge     Ge        0.656564532100198    0.735205195466129    0.105614544042576  0.0000
  Ge     Ge        0.355747043000347    0.759088573642786    0.894188289568997  0.0000
  Ge     Ge        0.858620688410820    0.742824488255285    0.896279501536071  0.0000
  Ge     Ge        0.163144255749559    0.739724549179787    0.110906437570922  0.0000
  Ge     Ge        0.142460122724208    0.236470169582841    0.098899034226939  0.0000
  Ge     Ge        0.281920554144654    0.380215175372860    0.334486721915904  0.0000
  Ge     Ge        0.682680812725625    0.598041404361004    0.671450374416273  0.0000
  Ge     Ge        0.274387607099407    0.581931639572581    0.312824148566929  0.0000
  Ge     Ge        0.779632282650886    0.882712592477330    0.339459464263585  0.0000
  Ge     Ge        0.179287790843979    0.102799087640999    0.664326692532986  0.0000
  Ge     Ge        0.766122047012938    0.082923118615298    0.316735812939580  0.0000
  Ge     Ge        0.368196190697201    0.401854750076636    0.694883663123469  0.0000
  Ge     Ge        0.599530264468642    0.382020251315228    0.340136867954620  0.0000
  Ge     Ge        0.589974510718332    0.583111794113653    0.309849823083792  0.0000
  Ge     Ge        0.368875008605948    0.604271398398968    0.675985340191722  0.0000
  Ge     Ge        0.873348462172174    0.903398201904003    0.702342402642153  0.0000
  Ge     Ge        0.095318415410482    0.884609806054261    0.339705489100419  0.0000
  Ge     Ge        0.083048689212408    0.084585690338837    0.306735608143623  0.0000
  Ge     Ge        0.867111955856415    0.106871717329259    0.679919124782185  0.0000
  Si     Si        0.848648556571808    0.256886602577249    0.894126042001208  0.0000
  Si     Si        0.677041526751415    0.399657357229370    0.693261491791465  0.0000
  Si     Si        0.178792075066226    0.903111960127184    0.691309614308500  0.0000
  O1     O1        0.525948629314471    0.249107985697345    0.953964292621608  0.0000
  O1     O1        0.530227617018572    0.758913356291276    0.947288257356099  0.0000
  O1     O1        0.033407942729681    0.746328776229918    0.951283429630033  0.0000
  O3     O3        0.011568538404723    0.261073395932528    0.942029306136834  0.0000
  O1     O1        0.309454335868835    0.162585382413310    0.767721466306335  0.0000
  O1     O1        0.651881492944651    0.144820484956935    0.193571068647864  0.0000
  O1     O1        0.664550510384123    0.811279508356106    0.241001962258487  0.0000
  O3     O3        0.299482281728988    0.852961365799321    0.804518054544914  0.0000
  O1     O1        0.811043322714707    0.660432222785863    0.772173802790859  0.0000
  O1     O1        0.156334624305377    0.644276970617728    0.195517814208134  0.0000
  O1     O1        0.160073880403627    0.312849197573336    0.234589807187445  0.0000
  O2     O2        0.788417139806806    0.343127395314766    0.809950341895204  0.0000
  O1     O1        0.304529939418920    0.340606705763556    0.809178120012003  0.0000
  O1     O1        0.676337721996312    0.315740979508041    0.243139510299115  0.0000
  O1     O1        0.641697923028929    0.638164470300357    0.178714000301900  0.0000
  O1     O1        0.299782677447793    0.675077588244733    0.774630861008926  0.0000
  O1     O1        0.810579960746138    0.839661280733309    0.814062919275253  0.0000
  O1     O1        0.170054692146939    0.817242792154657    0.242880237048040  0.0000
  O1     O1        0.126893581257149    0.139231048546634    0.169609310073682  0.0000
  O3     O3        0.799340358891985    0.177413674840180    0.783550569853375  0.0000
  O1     O1        0.289430918367182    0.232282419942072    0.043877807189077  0.0000
  O3     O3        0.806286805481246    0.244830910330388    0.046560815107139  0.0000
  O1     O1        0.805064482737835    0.731755703748336    0.052997493421352  0.0000
  O1     O1        0.310562686660874    0.747881042791548    0.056986818356786  0.0000
  O1     O1        0.425542223772954    0.374565215472308    0.272325360689995  0.0000
  O3     O3        0.544413297463391    0.408485752312987    0.751902789556859  0.0000
  O1     O1        0.543664829787500    0.609911688620750    0.738911861421332  0.0000
  O1     O1        0.416983082687734    0.575947948493406    0.249983324376299  0.0000
  O1     O1        0.921428250186913    0.879443833920457    0.273962542292339  0.0000
  O3     O3        0.049803817304382    0.907441766487676    0.758033548613766  0.0000
  O1     O1        0.041154512114946    0.114861048411215    0.733673253897293  0.0000
  O1     O1        0.910645059445200    0.074895121700935    0.258530254715790  0.0000
  O1     O1        0.322409134656818    0.355562140653603    0.520664949472377  0.0000
  O3     O3        0.639662845634905    0.356951662700207    0.529336227173004  0.0000
  O1     O1        0.641535809368769    0.627242827747915    0.486396555968765  0.0000
  O1     O1        0.321540173344590    0.627039596060373    0.488889182832949  0.0000
  O1     O1        0.824184318814763    0.859643034843763    0.526228160062394  0.0000
  O3     O3        0.136974237465900    0.858484355607367    0.528475944481233  0.0000
  O1     O1        0.138225268128044    0.132751893481948    0.479830488912450  0.0000
  O1     O1        0.807569780440965    0.128320644047625    0.492989771612796  0.0000
  O1     O1        0.217087441072085    0.481486297379273    0.319070390328744  0.0000
  O3     O3        0.734533635362242    0.492810644232232    0.683208319253370  0.0000
  O1     O1        0.708233792507735    0.982420170068441    0.322071153505374  0.0000
  O3     O3        0.226710210648871    0.997457520520381    0.670392360333081  0.0000
  O1     O1        0.312504230583287    0.503904627264147    0.695794963214366  0.0000
  O1     O1        0.653154202329563    0.481874164072239    0.320220991765740  0.0000
  O1     O1        0.818477542929977    0.005656470069660    0.707003639323373  0.0000
  O1     O1        0.149546354677289    0.984347447546769    0.317050488858754  0.0000
