data_c00133.vasp
_audit_creation_method             Generated by GULP
_audit_author_name                 Salvador R. G. Balestra
_symmetry_space_group_name_H-M     'P 1             '
_symmetry_Int_Tables_number        1

loop_
_symmetry_equiv_pos_site_id
_symmetry_equiv_pos_as_xyz
_cell_length_a                       10.2437
_cell_length_b                       15.8603
_cell_length_c                        9.2774
_cell_angle_alpha                   89.3702
_cell_angle_beta                   105.5918
_cell_angle_gamma                   90.0780

loop_
_atom_site_label
_atom_site_type_symbol
_atom_site_fract_x
_atom_site_fract_y
_atom_site_fract_z
_atom_site_charge
  Ge     Ge        0.351599999999962    0.244500000000016    0.893900000000031  0.0000
  Ge     Ge        0.655186551964799    0.240971113572922    0.111185057124274  0.0000
  Ge     Ge        0.658447937965259    0.755695266179882    0.120437903778348  0.0000
  Ge     Ge        0.357893709665386    0.735913387472626    0.908898827238465  0.0000
  Ge     Ge        0.850276298966750    0.738470333589946    0.901138191538414  0.0000
  Ge     Ge        0.153459843052837    0.743608678833373    0.116491335115783  0.0000
  Ge     Ge        0.147482186879455    0.256198569728152    0.103642879181189  0.0000
  Ge     Ge        0.324113292735906    0.399467719145093    0.323700736178842  0.0000
  Ge     Ge        0.726421673612424    0.379321540993090    0.676498534465492  0.0000
  Ge     Ge        0.743526375494266    0.579757882811701    0.702512300023354  0.0000
  Ge     Ge        0.331555632590364    0.602154606291072    0.348120471139635  0.0000
  Ge     Ge        0.232103553400423    0.884936550607416    0.677228830549775  0.0000
  Ge     Ge        0.236589892979078    0.087176747738477    0.690227199224844  0.0000
  Ge     Ge        0.827307635144221    0.099231836812249    0.340251816693091  0.0000
  Ge     Ge        0.638430216201358    0.397221890706623    0.312617953778022  0.0000
  Ge     Ge        0.644418086505883    0.599736359999488    0.335754429136832  0.0000
  Ge     Ge        0.430727664591660    0.585385008302364    0.706441335543026  0.0000
  Ge     Ge        0.915225999143673    0.886559085970053    0.676446511395695  0.0000
  Ge     Ge        0.139436949988507    0.900964328055508    0.315286449297363  0.0000
  Ge     Ge        0.139260562081901    0.103418019997057    0.326386008633887  0.0000
  Ge     Ge        0.921461788280758    0.088184411673603    0.699503254042230  0.0000
  Si     Si        0.850212180035937    0.233147397319499    0.902200994519367  0.0000
  Si     Si        0.832171923757448    0.899988421732319    0.324841133564284  0.0000
  Si     Si        0.416959517006656    0.387497999385937    0.675061624475322  0.0000
  O1     O1        0.481068703789725    0.244845817379888    0.053106269301087  0.0000
  O1     O1        0.483847028606296    0.756888916952186    0.067551938587726  0.0000
  O1     O1        0.978929878606027    0.743649338933787    0.061076170681627  0.0000
  O3     O3        0.971381185993202    0.254211693545976    0.046632448265193  0.0000
  O1     O1        0.354599503458304    0.152153993149860    0.800244718811445  0.0000
  O1     O1        0.696384249657568    0.157230277367603    0.232857224913822  0.0000
  O3     O3        0.714354747124585    0.848324729935554    0.212782783159236  0.0000
  O1     O1        0.349067134792926    0.814755354317565    0.778039832213921  0.0000
  O1     O1        0.861207372414529    0.644880330042403    0.812201003423056  0.0000
  O1     O1        0.204843843853176    0.666162870332945    0.248798120908545  0.0000
  O1     O1        0.194467636490248    0.344906112892254    0.208531170963115  0.0000
  O3     O3        0.838692911170455    0.305544678995575    0.776299816264692  0.0000
  O3     O3        0.350125236714229    0.329851851591863    0.776847960717519  0.0000
  O1     O1        0.705564180258064    0.334178064920055    0.201990516656095  0.0000
  O1     O1        0.713807366728965    0.670886909807221    0.238278812814205  0.0000
  O1     O1        0.372003125714736    0.638690339386956    0.834775720364996  0.0000
  O1     O1        0.842247911547170    0.819701700969355    0.775644330599929  0.0000
  O1     O1        0.199797523390308    0.840462239288958    0.197137918908677  0.0000
  O1     O1        0.204828437992152    0.170473032192574    0.218829980721305  0.0000
  O3     O3        0.869060131155708    0.143551007081080    0.833011020444340  0.0000
  O1     O1        0.203403137723894    0.253104999049678    0.946772903977117  0.0000
  O3     O3        0.712229423005400    0.230682247125064    0.953685313721950  0.0000
  O1     O1        0.703133386372434    0.745256325430786    0.957006812511772  0.0000
  O1     O1        0.208597614118660    0.731420786942451    0.960760742681831  0.0000
  O1     O1        0.463814256577598    0.397841897184208    0.254823795782154  0.0000
  O3     O3        0.580117088473798    0.383322740551817    0.736188753693837  0.0000
  O1     O1        0.603143849276361    0.581890435517647    0.770844725801126  0.0000
  O1     O1        0.470026975445060    0.606410675809312    0.276552740897116  0.0000
  O3     O3        0.963058329751858    0.904403536258815    0.260901840830007  0.0000
  O1     O1        0.089068618732154    0.882019688393602    0.741200143727590  0.0000
  O1     O1        0.094694704632696    0.083279205319293    0.755749871400505  0.0000
  O1     O1        0.964906590934977    0.110329654132343    0.270104881307621  0.0000
  O3     O3        0.372852802439886    0.356970320968383    0.504011896222479  0.0000
  O1     O1        0.688042321979065    0.355784265468807    0.491478725315004  0.0000
  O1     O1        0.694613094408264    0.619916260887889    0.523197123844897  0.0000
  O1     O1        0.379959324794657    0.632132995256975    0.532410220243592  0.0000
  O3     O3        0.873196042905843    0.857705751669134    0.489421410266337  0.0000
  O1     O1        0.191255437060331    0.858459003605623    0.491996117494526  0.0000
  O1     O1        0.189865773773552    0.128766206876764    0.512122564880164  0.0000
  O1     O1        0.867107883377663    0.131752107533126    0.523514263106182  0.0000
  O1     O1        0.271241716052939    0.500782873206752    0.333411972457224  0.0000
  O1     O1        0.799318471875471    0.478041255569960    0.702004203486496  0.0000
  O3     O3        0.780776397403244    0.994283925858856    0.340805663217060  0.0000
  O1     O1        0.296057522408406    0.986120323673344    0.691195860527829  0.0000
  O3     O3        0.368340378819662    0.483147431800577    0.683449392385959  0.0000
  O1     O1        0.694700276267560    0.498723063309510    0.309298986360091  0.0000
  O1     O1        0.860996651585640    0.987011952785618    0.695550346891252  0.0000
  O1     O1        0.194267533752061    0.002499808105544    0.310234914654301  0.0000
