data_c00130.vasp
_audit_creation_method             Generated by GULP
_audit_author_name                 Salvador R. G. Balestra
_symmetry_space_group_name_H-M     'P 1             '
_symmetry_Int_Tables_number        1

loop_
_symmetry_equiv_pos_site_id
_symmetry_equiv_pos_as_xyz
_cell_length_a                       10.2614
_cell_length_b                       15.8221
_cell_length_c                        9.2439
_cell_angle_alpha                   89.6662
_cell_angle_beta                   105.6234
_cell_angle_gamma                   89.5563

loop_
_atom_site_label
_atom_site_type_symbol
_atom_site_fract_x
_atom_site_fract_y
_atom_site_fract_z
_atom_site_charge
  Ge     Ge        0.351599999999962    0.244500000000016    0.893900000000031  0.0000
  Ge     Ge        0.658019241290404    0.240965821049787    0.109147752729212  0.0000
  Ge     Ge        0.670673898321071    0.756639554628229    0.115435897011078  0.0000
  Ge     Ge        0.373977045120062    0.736543212701104    0.898786330121488  0.0000
  Ge     Ge        0.864979736341743    0.735327811514740    0.898311402900226  0.0000
  Ge     Ge        0.170949798072646    0.748323577192850    0.109091791822334  0.0000
  Ge     Ge        0.146779374660826    0.261302912959963    0.100996552567169  0.0000
  Ge     Ge        0.326299729142093    0.406540364623964    0.310046413455219  0.0000
  Ge     Ge        0.728453026936389    0.376081888750597    0.673788842921214  0.0000
  Ge     Ge        0.753278221196297    0.576344307906257    0.697919014006782  0.0000
  Ge     Ge        0.346004796047125    0.608746400149872    0.349687718974985  0.0000
  Ge     Ge        0.242585702449365    0.884818845584649    0.665830970698163  0.0000
  Ge     Ge        0.242820746384407    0.086292422334885    0.691332602005267  0.0000
  Ge     Ge        0.830918924119384    0.100929877567717    0.341804177552457  0.0000
  Ge     Ge        0.415492013454543    0.389752131417210    0.671137549446315  0.0000
  Ge     Ge        0.641297099410397    0.399461686958559    0.307294640308051  0.0000
  Ge     Ge        0.660288662852863    0.602044089536506    0.336055383155483  0.0000
  Ge     Ge        0.928187336947602    0.883185848062737    0.670795597140336  0.0000
  Ge     Ge        0.147340897462139    0.906858113440352    0.302753434951186  0.0000
  Ge     Ge        0.141281456434995    0.109535877082116    0.327557761288147  0.0000
  Ge     Ge        0.928826887962175    0.084433566868972    0.702440299627052  0.0000
  Si     Si        0.853174978754183    0.230696227586638    0.900383293579070  0.0000
  Si     Si        0.842579852056737    0.901786860612003    0.318249191326871  0.0000
  Si     Si        0.442039344518182    0.586536324271861    0.699530916436423  0.0000
  O1     O1        0.484144377504299    0.247588611029827    0.050873284754767  0.0000
  O1     O1        0.496528212850194    0.759298731898622    0.059594790548789  0.0000
  O1     O1        0.996718112822053    0.742778748954737    0.054547995601395  0.0000
  O3     O3        0.971263429716995    0.257401936486280    0.045032898591994  0.0000
  O1     O1        0.360180744152664    0.151716035624602    0.800277666637268  0.0000
  O1     O1        0.698329825053682    0.158797182097426    0.235356818618957  0.0000
  O3     O3        0.724784620686655    0.849841393249333    0.207342400090515  0.0000
  O1     O1        0.360721054847847    0.814349621624936    0.766326606974691  0.0000
  O1     O1        0.867653525234686    0.636651471966498    0.820534721882255  0.0000
  O1     O1        0.226764975351782    0.679268624690620    0.256315773182048  0.0000
  O1     O1        0.196453098910156    0.355853140135528    0.186372510475367  0.0000
  O3     O3        0.840573991448423    0.299298905868055    0.767896689744680  0.0000
  O1     O1        0.338458263805847    0.330583695634476    0.777069144904240  0.0000
  O1     O1        0.709464388427560    0.334852578001146    0.198319597815595  0.0000
  O1     O1        0.726344235396859    0.671601256020868    0.233218375252626  0.0000
  O3     O3        0.399952449577397    0.639167605603084    0.827083752992690  0.0000
  O1     O1        0.858183273277376    0.811345156083140    0.763738709758376  0.0000
  O1     O1        0.206221065527690    0.849251738701899    0.177765056034451  0.0000
  O1     O1        0.207152218788740    0.181398327760309    0.229530085524861  0.0000
  O3     O3        0.878935481306794    0.139231326470453    0.839834163011718  0.0000
  O1     O1        0.202684314613592    0.246369105100547    0.945614224132763  0.0000
  O3     O3        0.715342662446296    0.227382551612574    0.951876938218054  0.0000
  O1     O1        0.718187646762650    0.746629702708939    0.953081304589595  0.0000
  O1     O1        0.227236464144285    0.728355936991769    0.955434676246707  0.0000
  O1     O1        0.467463168366808    0.405236975560720    0.243594163343059  0.0000
  O1     O1        0.587408634293460    0.375609097106623    0.740090309270543  0.0000
  O3     O3        0.602603756095854    0.571218060974468    0.748730412119773  0.0000
  O1     O1        0.486402932265175    0.611852504974686    0.282357716814487  0.0000
  O3     O3        0.971034555058969    0.908553812957760    0.250797309058597  0.0000
  O1     O1        0.102013743051200    0.879002149387313    0.733513473037926  0.0000
  O1     O1        0.101684333775657    0.077628381038974    0.756831363229782  0.0000
  O1     O1        0.967002254896832    0.115255950716924    0.270576957298644  0.0000
  O1     O1        0.364835547233924    0.360705640088845    0.485938767660392  0.0000
  O1     O1        0.679236491409793    0.356465832006776    0.485568871236681  0.0000
  O1     O1        0.721713406166537    0.622574119058364    0.523528839593040  0.0000
  O3     O3        0.396839405696517    0.634320895480253    0.539284679128637  0.0000
  O3     O3        0.888237469999583    0.857877072691670    0.481576136946800  0.0000
  O1     O1        0.202638351292189    0.861893912869756    0.478349631972585  0.0000
  O1     O1        0.190419856542844    0.131031979706454    0.515288987247588  0.0000
  O1     O1        0.870677126646394    0.130177724708477    0.527813439152979  0.0000
  O1     O1        0.278740658384482    0.509579055313744    0.325704922335660  0.0000
  O1     O1        0.805876879244162    0.473336796284088    0.697414524319830  0.0000
  O3     O3        0.788187645215167    0.995271379253407    0.338697840835620  0.0000
  O1     O1        0.305641048461371    0.986116283598995    0.685331676958173  0.0000
  O3     O3        0.371650130749261    0.495340768182772    0.681372036940469  0.0000
  O1     O1        0.704955134071256    0.499256622810857    0.309189288303789  0.0000
  O1     O1        0.870733807033833    0.982459097788949    0.697053713690605  0.0000
  O1     O1        0.198265254135843    0.009381190025216    0.302648288381416  0.0000
