data_c00141.vasp
_audit_creation_method             Generated by GULP
_audit_author_name                 Salvador R. G. Balestra
_symmetry_space_group_name_H-M     'P 1             '
_symmetry_Int_Tables_number        1

loop_
_symmetry_equiv_pos_site_id
_symmetry_equiv_pos_as_xyz
_cell_length_a                       10.2657
_cell_length_b                       15.8775
_cell_length_c                        9.2688
_cell_angle_alpha                   89.6458
_cell_angle_beta                   105.6735
_cell_angle_gamma                   89.3599

loop_
_atom_site_label
_atom_site_type_symbol
_atom_site_fract_x
_atom_site_fract_y
_atom_site_fract_z
_atom_site_charge
  Ge     Ge        0.351599999999962    0.244500000000016    0.893900000000031  0.0000
  Ge     Ge        0.658759344721608    0.241471347213206    0.108993653565727  0.0000
  Ge     Ge        0.660499995718894    0.750965881631794    0.113725679446872  0.0000
  Ge     Ge        0.361854135242248    0.734421426834786    0.892041695144156  0.0000
  Ge     Ge        0.867991915240872    0.734430437303712    0.909508803402479  0.0000
  Ge     Ge        0.172468477126871    0.741218042268654    0.115731120119699  0.0000
  Ge     Ge        0.148061531165893    0.258698553173545    0.103013769614900  0.0000
  Ge     Ge        0.326957223880115    0.404418171103199    0.309153043915451  0.0000
  Ge     Ge        0.726984354047824    0.378589177304109    0.677419973639114  0.0000
  Ge     Ge        0.743608215831917    0.581024221431172    0.698605726815180  0.0000
  Ge     Ge        0.833795495145125    0.896680838410637    0.325306356751589  0.0000
  Ge     Ge        0.242666269851137    0.888114276104988    0.670982784238522  0.0000
  Ge     Ge        0.243861984069660    0.087932342568651    0.689068880544735  0.0000
  Ge     Ge        0.829667069875435    0.100575221135091    0.343104352448396  0.0000
  Ge     Ge        0.412538228458574    0.389310301487003    0.671600560732265  0.0000
  Ge     Ge        0.642354312312748    0.396664169992805    0.311785272561807  0.0000
  Ge     Ge        0.655160014023713    0.598541473510354    0.337557985049350  0.0000
  Ge     Ge        0.930905911706910    0.885379431289330    0.684940212133198  0.0000
  Ge     Ge        0.143474159832526    0.901883068598795    0.304534868803734  0.0000
  Ge     Ge        0.140476432294391    0.104545389268856    0.324290193579661  0.0000
  Ge     Ge        0.930411040035616    0.087472021711228    0.701751447832169  0.0000
  Si     Si        0.854287583925257    0.233080290970071    0.901574922790582  0.0000
  Si     Si        0.347760404131952    0.601113727425558    0.341218521874836  0.0000
  Si     Si        0.433046894296821    0.586087607499754    0.690239880469900  0.0000
  O1     O1        0.484822434230558    0.247378414235116    0.049479068782392  0.0000
  O1     O1        0.486947095738809    0.746711874778335    0.053890661748316  0.0000
  O1     O1        0.998967842294295    0.731146833639559    0.068490977541324  0.0000
  O3     O3        0.972465698643365    0.256129174683126    0.048072944155348  0.0000
  O1     O1        0.360695011709913    0.153400210216444    0.796987717247218  0.0000
  O1     O1        0.699409496503209    0.159611109718901    0.234389513296895  0.0000
  O1     O1        0.704377967170737    0.842509277292926    0.210186772806952  0.0000
  O1     O1        0.359372374127925    0.817310817001775    0.772323617981858  0.0000
  O1     O1        0.863047406384783    0.640970756535762    0.814821331149334  0.0000
  O3     O3        0.238544280650770    0.669125019265955    0.257500743452459  0.0000
  O1     O1        0.196644904992245    0.352668200799503    0.190222546727201  0.0000
  O3     O3        0.842895606702249    0.304582384635652    0.774682036872012  0.0000
  O1     O1        0.335535660334223    0.330193351206942    0.776420108341060  0.0000
  O1     O1        0.711076204244725    0.333904661978746    0.201316257912817  0.0000
  O1     O1        0.719028262543811    0.666442767246876    0.232422032563072  0.0000
  O3     O3        0.370360009485853    0.642720911648377    0.796013389345159  0.0000
  O1     O1        0.870994368033517    0.820035257750029    0.797490541353957  0.0000
  O1     O1        0.208874370819231    0.840176788904743    0.189491699395910  0.0000
  O1     O1        0.205921656538222    0.176412671517076    0.226364769376931  0.0000
  O3     O3        0.878978729578176    0.142926937766432    0.836864008049985  0.0000
  O1     O1        0.203822861665398    0.245805428954217    0.947613057283136  0.0000
  O3     O3        0.716049560785295    0.229322300420893    0.951881256996555  0.0000
  O1     O1        0.718409009170543    0.744658097828589    0.958605446113807  0.0000
  O1     O1        0.217482157082532    0.727867186816202    0.953095154231987  0.0000
  O1     O1        0.468385981776173    0.397945921560764    0.245242023972418  0.0000
  O1     O1        0.584543571486233    0.376177848462407    0.740644690963402  0.0000
  O3     O3        0.594720194275976    0.581786759790655    0.754528649268210  0.0000
  O3     O3        0.478992809087649    0.602821295116955    0.278417667385848  0.0000
  O1     O1        0.969065665649834    0.899247274653207    0.249318172877510  0.0000
  O1     O1        0.104777006221604    0.885239108939501    0.742672419106875  0.0000
  O1     O1        0.103509371336002    0.081189827983181    0.755928839829498  0.0000
  O1     O1        0.966300020402303    0.107853777335680    0.270166803754277  0.0000
  O1     O1        0.361857160387773    0.361726512764026    0.486486882612665  0.0000
  O1     O1        0.682014301538432    0.355511784562082    0.490860582949914  0.0000
  O1     O1        0.713525694958512    0.623860444072723    0.522230240668942  0.0000
  O2     O2        0.399000803915562    0.621673530560221    0.519097171039958  0.0000
  O1     O1        0.881697495924672    0.852659227890440    0.501892592584245  0.0000
  O1     O1        0.193630130316065    0.863165751888829    0.485028316342888  0.0000
  O1     O1        0.192156612012292    0.128580744878993    0.510592389543383  0.0000
  O1     O1        0.873953107382591    0.133006163457748    0.527142766625083  0.0000
  O3     O3        0.281754463898037    0.509487262164057    0.317550484406319  0.0000
  O1     O1        0.795147643763265    0.477777599729619    0.699993352589626  0.0000
  O1     O1        0.780605648774694    0.997910458608432    0.343472345410737  0.0000
  O1     O1        0.308406702436620    0.987936086098081    0.686491891824531  0.0000
  O3     O3        0.370485605349711    0.494175557399244    0.686702224411209  0.0000
  O1     O1        0.703607025704065    0.496556526769794    0.314909109635414  0.0000
  O1     O1        0.871585093181028    0.986386574445536    0.696417051253195  0.0000
  O1     O1        0.194737383273322    0.003974624306955    0.298770618716069  0.0000
