data_c00227.vasp
_audit_creation_method             Generated by GULP
_audit_author_name                 Salvador R. G. Balestra
_symmetry_space_group_name_H-M     'P 1             '
_symmetry_Int_Tables_number        1

loop_
_symmetry_equiv_pos_site_id
_symmetry_equiv_pos_as_xyz
_cell_length_a                       10.2070
_cell_length_b                       15.8724
_cell_length_c                        9.2871
_cell_angle_alpha                   90.0877
_cell_angle_beta                   105.3658
_cell_angle_gamma                   90.5928

loop_
_atom_site_label
_atom_site_type_symbol
_atom_site_fract_x
_atom_site_fract_y
_atom_site_fract_z
_atom_site_charge
  Ge     Ge        0.351599999999962    0.244500000000016    0.893900000000031  0.0000
  Ge     Ge        0.656362702069926    0.228117283119947    0.100400448686339  0.0000
  Ge     Ge        0.657568703130343    0.740162858258772    0.089099895568000  0.0000
  Ge     Ge        0.862121218071339    0.746100355189071    0.878452701698450  0.0000
  Ge     Ge        0.163942398516575    0.731775259437283    0.093104775470443  0.0000
  Ge     Ge        0.859429714010179    0.236702176446539    0.888837253538546  0.0000
  Ge     Ge        0.330442317371821    0.381608313472237    0.321851878200490  0.0000
  Ge     Ge        0.738138240339928    0.390960071975588    0.678486902638892  0.0000
  Ge     Ge        0.740678024245744    0.592980399859142    0.659127301907852  0.0000
  Ge     Ge        0.330241231376268    0.584540394289645    0.309217507186057  0.0000
  Ge     Ge        0.836399250774903    0.880346711491228    0.324231817120629  0.0000
  Ge     Ge        0.243019384460142    0.890349059377145    0.673438256924766  0.0000
  Ge     Ge        0.241922612179436    0.091805883740282    0.669371291233293  0.0000
  Ge     Ge        0.828761221969628    0.082496190422456    0.313863738082368  0.0000
  Ge     Ge        0.421467883565201    0.392061945210868    0.680312205008736  0.0000
  Ge     Ge        0.645723389148606    0.381631574458150    0.314280036095552  0.0000
  Ge     Ge        0.645741404818752    0.582942697934609    0.295474138503088  0.0000
  Ge     Ge        0.424430214539182    0.595582690159538    0.666453581667857  0.0000
  Ge     Ge        0.151708507950712    0.884958242514402    0.309170072806323  0.0000
  Ge     Ge        0.144170807078048    0.086952096680944    0.302682651532003  0.0000
  Ge     Ge        0.926084280109117    0.090202429982340    0.670462715004281  0.0000
  Si     Si        0.358232316511260    0.739527942572497    0.882997934885603  0.0000
  Si     Si        0.154011616740090    0.241490150260025    0.101656798892371  0.0000
  Si     Si        0.931873800605403    0.891513437002298    0.672859604320677  0.0000
  O1     O1        0.482172116074218    0.233391361878846    0.050165806306347  0.0000
  O3     O3        0.480826529948053    0.743608363465593    0.031649682845589  0.0000
  O1     O1        0.989551753639391    0.734209492633421    0.037430797747770  0.0000
  O3     O3        0.990136633259052    0.240409334926706    0.050887210071052  0.0000
  O1     O1        0.355405550274754    0.163054736795778    0.772605181981381  0.0000
  O1     O1        0.701030157787897    0.136563678901821    0.196224148224148  0.0000
  O1     O1        0.709955848969358    0.816752198976044    0.222602810172525  0.0000
  O3     O3        0.358033915226423    0.822981491033945    0.784100657666562  0.0000
  O1     O1        0.858665294816473    0.662572293831488    0.760379329208391  0.0000
  O1     O1        0.205152349830249    0.640907090361934    0.191792817805456  0.0000
  O3     O3        0.202616034231395    0.320760103349844    0.209897578455046  0.0000
  O1     O1        0.858790712891961    0.325002383712782    0.782090786560564  0.0000
  O1     O1        0.354914789558511    0.338075860104035    0.803632551100369  0.0000
  O1     O1        0.716227790828156    0.313084694709167    0.215793399548519  0.0000
  O1     O1        0.704522619537056    0.644977602120876    0.175213137222162  0.0000
  O3     O3        0.362318278147601    0.657090766231736    0.785086992894666  0.0000
  O3     O3        0.873981403176399    0.840180642731530    0.790063863467242  0.0000
  O1     O1        0.220023659237494    0.818414533798932    0.204406132047293  0.0000
  O3     O3        0.205928837314276    0.156190414446899    0.192315717280444  0.0000
  O1     O1        0.856209577747461    0.146226614605626    0.787036965140235  0.0000
  O3     O3        0.202904147344756    0.245375608409721    0.951640525825642  0.0000
  O1     O1        0.710553506478905    0.234096442510345    0.942124378112646  0.0000
  O1     O1        0.714280749137457    0.752122535067782    0.933943130494927  0.0000
  O3     O3        0.218752673391797    0.735352080808680    0.932585210592666  0.0000
  O1     O1        0.470432807598384    0.380513093216463    0.252969844209128  0.0000
  O1     O1        0.596035927187031    0.392718844887725    0.744774729293276  0.0000
  O1     O1        0.598449894963057    0.595919778206861    0.725680762151777  0.0000
  O1     O1        0.471057039656479    0.582290979403938    0.241665599833118  0.0000
  O1     O1        0.976581718135408    0.878141593103940    0.254978451813663  0.0000
  O3     O3        0.095133114202718    0.896464548393667    0.730448729908719  0.0000
  O1     O1        0.098971809033029    0.097092519717108    0.734030953411254  0.0000
  O1     O1        0.970234133081492    0.082499558429950    0.246396598937459  0.0000
  O1     O1        0.372293875601048    0.348028295635912    0.504124170210682  0.0000
  O1     O1        0.687679451642039    0.353633746752637    0.498585019923844  0.0000
  O1     O1        0.697317012157760    0.621555807314545    0.475042408929438  0.0000
  O1     O1        0.373241669651568    0.629327733296405    0.485139495403567  0.0000
  O3     O3        0.888469576021906    0.848449924003941    0.509867217621034  0.0000
  O1     O1        0.207572411107168    0.855713325327186    0.493240924051770  0.0000
  O1     O1        0.196402445722405    0.120138250560775    0.484704273226456  0.0000
  O1     O1        0.872168864173311    0.126077695101110    0.490054254758791  0.0000
  O1     O1        0.274121616021067    0.483209308943214    0.321116964146765  0.0000
  O1     O1        0.801272224965762    0.491705450058112    0.677238348493926  0.0000
  O1     O1        0.774624661004014    0.980289834912256    0.318411651489042  0.0000
  O1     O1        0.306643189292068    0.991652579432665    0.685254913879539  0.0000
  O1     O1        0.366025441637140    0.494168319581304    0.671437694948946  0.0000
  O1     O1        0.703563732306820    0.482023765574149    0.294792904037523  0.0000
  O3     O3        0.873868296770469    0.985526387417512    0.662157728909413  0.0000
  O1     O1        0.202994942881046    0.986952855122257    0.290361798057520  0.0000
