data_c00220.vasp
_audit_creation_method             Generated by GULP
_audit_author_name                 Salvador R. G. Balestra
_symmetry_space_group_name_H-M     'P 1             '
_symmetry_Int_Tables_number        1

loop_
_symmetry_equiv_pos_site_id
_symmetry_equiv_pos_as_xyz
_cell_length_a                       10.1954
_cell_length_b                       15.8207
_cell_length_c                        9.2917
_cell_angle_alpha                   90.8358
_cell_angle_beta                   105.5874
_cell_angle_gamma                   89.1769

loop_
_atom_site_label
_atom_site_type_symbol
_atom_site_fract_x
_atom_site_fract_y
_atom_site_fract_z
_atom_site_charge
  Ge     Ge        0.351599999999962    0.244500000000016    0.893900000000031  0.0000
  Ge     Ge        0.661921861336877    0.240928977985485    0.103109146197958  0.0000
  Ge     Ge        0.640532683958879    0.742105018951356    0.102098039585766  0.0000
  Ge     Ge        0.841894811469943    0.749824993641428    0.888730549041960  0.0000
  Ge     Ge        0.149786523464028    0.742141310252123    0.098210565810263  0.0000
  Ge     Ge        0.145066635595501    0.236947258267032    0.101215046263222  0.0000
  Ge     Ge        0.272773592655498    0.385146871179668    0.331475548077620  0.0000
  Ge     Ge        0.677229031798712    0.400837567679375    0.687438794330829  0.0000
  Ge     Ge        0.671917638084095    0.603442497743060    0.663650625954318  0.0000
  Ge     Ge        0.259350156338938    0.586914378035424    0.309396188551426  0.0000
  Ge     Ge        0.768162822821362    0.892006025993993    0.326169427664900  0.0000
  Ge     Ge        0.170584606176926    0.899710190161882    0.686725544515419  0.0000
  Ge     Ge        0.176153456675035    0.102603908833918    0.662127288745324  0.0000
  Ge     Ge        0.360906324006235    0.404385603409352    0.695702893430477  0.0000
  Ge     Ge        0.591257535256328    0.386137382656957    0.329873480829216  0.0000
  Ge     Ge        0.576924644541558    0.589569733410878    0.307062942058180  0.0000
  Ge     Ge        0.356132325947357    0.606081762744244    0.673409125102918  0.0000
  Ge     Ge        0.853423330604452    0.908482846457195    0.690866064662582  0.0000
  Ge     Ge        0.085863917447098    0.885329324520544    0.329749124559542  0.0000
  Ge     Ge        0.077982233998590    0.088519535512215    0.308318542251189  0.0000
  Ge     Ge        0.858745996494934    0.108877024747180    0.670595047766545  0.0000
  Si     Si        0.346067451474058    0.756024932076651    0.892303771138505  0.0000
  Si     Si        0.853650788284192    0.258620447528958    0.891261687624024  0.0000
  Si     Si        0.766931664620779    0.089403002835777    0.314740543937947  0.0000
  O1     O1        0.527047442486058    0.241891484030099    0.949250222114075  0.0000
  O3     O3        0.509890605508172    0.755642740979474    0.940974232267534  0.0000
  O1     O1        0.017585393621171    0.750357500076023    0.942707070360930  0.0000
  O3     O3        0.017365736202148    0.256777162057651    0.939599426755975  0.0000
  O1     O1        0.303042970588010    0.163586796549479    0.767751491445822  0.0000
  O3     O3        0.659524358682154    0.150446295851539    0.206344458309880  0.0000
  O1     O1        0.646261243120696    0.824703825813359    0.225910937727822  0.0000
  O3     O3        0.294197925285794    0.844362519973916    0.814881226265519  0.0000
  O1     O1        0.796705051006163    0.666963263884104    0.766116078376413  0.0000
  O1     O1        0.141684241747838    0.650357880016817    0.192842683098563  0.0000
  O1     O1        0.154729373792433    0.314584110890361    0.234019381186281  0.0000
  O3     O3        0.802975189184543    0.347902912910494    0.817673439762623  0.0000
  O1     O1        0.300685519816440    0.340440731411682    0.809651315206176  0.0000
  O1     O1        0.665433523316998    0.326295246304580    0.218681365731987  0.0000
  O1     O1        0.635527224272738    0.646419935410136    0.182862987496051  0.0000
  O3     O3        0.290859249296631    0.679839862117953    0.775217500378464  0.0000
  O1     O1        0.788492254601486    0.844282252352622    0.800530905777249  0.0000
  O1     O1        0.161768381432893    0.824601592795913    0.222034016599351  0.0000
  O1     O1        0.126976975107823    0.139992375246848    0.172060635326310  0.0000
  O3     O3        0.795322735858491    0.185216099662953    0.768886118500417  0.0000
  O1     O1        0.294244555672996    0.234069575832098    0.048813229661385  0.0000
  O3     O3        0.808481875268996    0.243507369742470    0.041849150564168  0.0000
  O1     O1        0.787822803610031    0.740279334194936    0.045506605518134  0.0000
  O3     O3        0.299522134535703    0.742792943110371    0.042091337149818  0.0000
  O1     O1        0.416234795342461    0.380814145329833    0.267050795535858  0.0000
  O1     O1        0.536093831111495    0.407035248550990    0.753619758719669  0.0000
  O1     O1        0.530882404401620    0.606247391556617    0.731968036378164  0.0000
  O1     O1        0.403328132936080    0.582736061131019    0.246860084960114  0.0000
  O1     O1        0.910987261712355    0.880948233933402    0.262589186947435  0.0000
  O1     O1        0.028680901571702    0.909207581059619    0.750871370821226  0.0000
  O1     O1        0.033200578719206    0.109089550185144    0.727228879991784  0.0000
  O3     O3        0.902390318120649    0.081942120156246    0.258047519771439  0.0000
  O1     O1        0.317849763210749    0.362221586821789    0.517741225355212  0.0000
  O1     O1        0.639796585340686    0.354226391116421    0.513256181404718  0.0000
  O1     O1        0.623853156920400    0.636201680463556    0.481251713449428  0.0000
  O1     O1        0.301992945842298    0.629442709472754    0.487508560225914  0.0000
  O1     O1        0.809059487847116    0.868052537748184    0.511831154253121  0.0000
  O1     O1        0.130438827837423    0.852861426121272    0.512701263635810  0.0000
  O1     O1        0.135333008503629    0.136524351138424    0.479884999055040  0.0000
  O3     O3        0.807098154656665    0.129125700314372    0.481300207113838  0.0000
  O1     O1        0.203132243981144    0.485675292587980    0.312221137240051  0.0000
  O1     O1        0.732030105539647    0.501226411467064    0.670268848174646  0.0000
  O3     O3        0.707594921587800    0.995918924868832    0.313632574634758  0.0000
  O1     O1        0.229758914255749    0.999073593990391    0.669417189767103  0.0000
  O1     O1        0.300304312646848    0.506110531806452    0.697217437966488  0.0000
  O1     O1        0.642039345517317    0.488518394351701    0.321016327201386  0.0000
  O1     O1        0.798771839456963    0.011259649265550    0.698655150966883  0.0000
  O1     O1        0.139709805126811    0.987043076165903    0.322717760089423  0.0000
