data_c00244.vasp
_audit_creation_method             Generated by GULP
_audit_author_name                 Salvador R. G. Balestra
_symmetry_space_group_name_H-M     'P 1             '
_symmetry_Int_Tables_number        1

loop_
_symmetry_equiv_pos_site_id
_symmetry_equiv_pos_as_xyz
_cell_length_a                       10.1592
_cell_length_b                       15.8500
_cell_length_c                        9.3006
_cell_angle_alpha                   89.7977
_cell_angle_beta                   105.4821
_cell_angle_gamma                   90.3094

loop_
_atom_site_label
_atom_site_type_symbol
_atom_site_fract_x
_atom_site_fract_y
_atom_site_fract_z
_atom_site_charge
  Ge     Ge        0.351599999999962    0.244500000000016    0.893900000000031  0.0000
  Ge     Ge        0.655677866375878    0.261383614908950    0.105687821447909  0.0000
  Ge     Ge        0.574546606472890    0.763445180270615    0.096472841422613  0.0000
  Ge     Ge        0.075485859392230    0.746291940832099    0.096699112522255  0.0000
  Ge     Ge        0.155256067195694    0.242673588152212    0.111446390678830  0.0000
  Ge     Ge        0.856667427598990    0.265491484570682    0.894466470961932  0.0000
  Ge     Ge        0.268403288510775    0.398101231230052    0.328971343946215  0.0000
  Ge     Ge        0.677797379361353    0.412827412002048    0.682872221737075  0.0000
  Ge     Ge        0.657247265960599    0.615291354606678    0.674853288701091  0.0000
  Ge     Ge        0.246436164671896    0.600882573163149    0.318694993234805  0.0000
  Ge     Ge        0.747241831254661    0.904852335484978    0.322276223230054  0.0000
  Ge     Ge        0.161664946094154    0.898255108163990    0.674195809531620  0.0000
  Ge     Ge        0.177334766688533    0.099322260706669    0.670832269252244  0.0000
  Ge     Ge        0.770425078318292    0.108246519636676    0.325108471040939  0.0000
  Ge     Ge        0.360804014919822    0.403063327081264    0.690464252427331  0.0000
  Ge     Ge        0.583626919613046    0.408136622166338    0.321787529926600  0.0000
  Ge     Ge        0.565750230300318    0.611005812311795    0.315716328854725  0.0000
  Ge     Ge        0.339758676938689    0.604909970255520    0.679666095502220  0.0000
  Ge     Ge        0.843615462887988    0.907391352529543    0.681753370773561  0.0000
  Ge     Ge        0.064122606928871    0.897853737788420    0.314372842728561  0.0000
  Ge     Ge        0.861433943098477    0.109784866543712    0.682649854226586  0.0000
  Si     Si        0.273785575682660    0.748753494469084    0.889305277404338  0.0000
  Si     Si        0.775535828003217    0.763285602880587    0.891830940380649  0.0000
  Si     Si        0.078802726105683    0.096935893987243    0.316233744275314  0.0000
  O1     O1        0.527487586699885    0.251968717852080    0.945294261784164  0.0000
  O3     O3        0.397879341392100    0.756476462716518    0.036559752564352  0.0000
  O3     O3        0.898702060774758    0.750563574969310    0.038568980015057  0.0000
  O1     O1        0.032008287710273    0.257059942013578    0.947850150325067  0.0000
  O1     O1        0.305930532477062    0.160939748327364    0.773996347792166  0.0000
  O1     O1        0.653997348492024    0.174546538719263    0.216433442596464  0.0000
  O1     O1        0.614461522887130    0.850960416843360    0.206726538920716  0.0000
  O3     O3        0.276542071600894    0.827826801283304    0.781332679770078  0.0000
  O3     O3        0.773497455098620    0.686348857194009    0.779031200183579  0.0000
  O1     O1        0.117504030113692    0.657162933449486    0.202602971627438  0.0000
  O1     O1        0.154935869384191    0.326483758431723    0.227113845503205  0.0000
  O1     O1        0.809273612054552    0.356096461176383    0.793297476506734  0.0000
  O1     O1        0.294796930518924    0.336576762945537    0.798837041322923  0.0000
  O1     O1        0.652342172323058    0.351996542198387    0.204491474659433  0.0000
  O1     O1        0.630264420214785    0.675858165482403    0.203680867192483  0.0000
  O3     O3        0.274835254641579    0.662506222776271    0.800756320041053  0.0000
  O3     O3        0.784356228771281    0.851331825102626    0.810175917311263  0.0000
  O1     O1        0.130986000914932    0.834037489088318    0.204442287363173  0.0000
  O3     O3        0.142309621776418    0.149725220735001    0.204562640759631  0.0000
  O1     O1        0.796513456762814    0.177840384544515    0.787811193106259  0.0000
  O1     O1        0.303943435672955    0.235421486554932    0.056384841714122  0.0000
  O1     O1        0.806657097271221    0.265153381051070    0.055670130428529  0.0000
  O3     O3        0.635175362649577    0.765121551897967    0.940781907222978  0.0000
  O3     O3        0.134055260069594    0.748203807311413    0.939521936440409  0.0000
  O1     O1        0.408841238778917    0.402217941142479    0.258411544963523  0.0000
  O1     O1        0.536934440075535    0.408289961549137    0.751865385480912  0.0000
  O1     O1        0.514452598336252    0.607824185653814    0.739853279117559  0.0000
  O1     O1        0.389934200733253    0.606274437928251    0.255346554941045  0.0000
  O1     O1        0.888743599202168    0.894748335223893    0.256141777451901  0.0000
  O1     O1        0.018400801657371    0.907544045204689    0.737197461227327  0.0000
  O1     O1        0.037820064359849    0.106356998666091    0.740904252334902  0.0000
  O3     O3        0.914939784027145    0.100603621031646    0.259178591374778  0.0000
  O1     O1        0.322229338265901    0.365533931368053    0.510715543974998  0.0000
  O1     O1        0.636503219910511    0.374177342086999    0.503533287625947  0.0000
  O1     O1        0.607662052073914    0.650379391453150    0.494247901321551  0.0000
  O1     O1        0.282953564616646    0.639047712139720    0.498689727262914  0.0000
  O1     O1        0.784580411455662    0.868795184811582    0.504017512788504  0.0000
  O1     O1        0.113492178255894    0.861584006030064    0.494783045116563  0.0000
  O3     O3        0.129559349975892    0.131128581876623    0.484852120562251  0.0000
  O1     O1        0.817980383220296    0.146901835796606    0.502434627745892  0.0000
  O1     O1        0.197975324765555    0.496747858382927    0.321283765760221  0.0000
  O1     O1        0.727766397710711    0.516966259869387    0.680783693585352  0.0000
  O1     O1        0.702966903925077    0.009072296929721    0.324683954905518  0.0000
  O1     O1        0.233462481862439    0.996704125405827    0.680543312531173  0.0000
  O1     O1        0.291120800367646    0.501364772392741    0.688892579074987  0.0000
  O1     O1        0.632398041911724    0.512205635852921    0.317949104696798  0.0000
  O1     O1        0.793703688299014    0.010714937933308    0.685898035234179  0.0000
  O3     O3        0.124755308164891    0.999891435058139    0.314156228198032  0.0000
