data_c00242.vasp
_audit_creation_method             Generated by GULP
_audit_author_name                 Salvador R. G. Balestra
_symmetry_space_group_name_H-M     'P 1             '
_symmetry_Int_Tables_number        1

loop_
_symmetry_equiv_pos_site_id
_symmetry_equiv_pos_as_xyz
_cell_length_a                       10.2128
_cell_length_b                       15.8533
_cell_length_c                        9.2912
_cell_angle_alpha                   89.5512
_cell_angle_beta                   105.7034
_cell_angle_gamma                   89.5518

loop_
_atom_site_label
_atom_site_type_symbol
_atom_site_fract_x
_atom_site_fract_y
_atom_site_fract_z
_atom_site_charge
  Ge     Ge        0.351599999999962    0.244500000000016    0.893900000000031  0.0000
  Ge     Ge        0.655846494463895    0.262665885108623    0.105057883751181  0.0000
  Ge     Ge        0.643073722208205    0.758446654835109    0.104049122909645  0.0000
  Ge     Ge        0.851237143540201    0.745606525607348    0.897580686890782  0.0000
  Ge     Ge        0.861915987704220    0.254531110156881    0.898983390477692  0.0000
  Ge     Ge        0.268204007754194    0.410025142366175    0.307747986987279  0.0000
  Ge     Ge        0.676464323272692    0.395841451752367    0.669222620867943  0.0000
  Ge     Ge        0.678282983218749    0.599601347159447    0.687187904609239  0.0000
  Ge     Ge        0.269827058746442    0.610681251902573    0.320814407825504  0.0000
  Ge     Ge        0.769867364052532    0.910746000631946    0.308308668190936  0.0000
  Ge     Ge        0.179148478272055    0.893798426953102    0.664148931276282  0.0000
  Ge     Ge        0.186462884206255    0.096040783445841    0.680901532523684  0.0000
  Ge     Ge        0.778842049701278    0.112354605610082    0.329951241094833  0.0000
  Ge     Ge        0.360193824951709    0.398508002855769    0.675967213767663  0.0000
  Ge     Ge        0.586576415190833    0.410274932493117    0.313741987195447  0.0000
  Ge     Ge        0.590901371723930    0.611938245151517    0.332357799799204  0.0000
  Ge     Ge        0.360180317307029    0.600511736775373    0.688340796783556  0.0000
  Ge     Ge        0.862994031533983    0.895841218377142    0.670701880298746  0.0000
  Ge     Ge        0.087292193786014    0.905818021298449    0.304582067119301  0.0000
  Ge     Ge        0.094232789101542    0.109131075451530    0.321211802411528  0.0000
  Ge     Ge        0.871518986423190    0.097285183940371    0.692263521700811  0.0000
  Si     Si        0.344397417371094    0.752434369120349    0.889947162040567  0.0000
  Si     Si        0.153027661678762    0.760385682348034    0.097689287118366  0.0000
  Si     Si        0.160986986873902    0.254860521005854    0.106448959721065  0.0000
  O1     O1        0.526161388736336    0.248077135670313    0.947840899029775  0.0000
  O3     O3        0.507711599307767    0.751911106496282    0.947566229429771  0.0000
  O3     O3        0.027076013767594    0.748575627460009    0.954608930899034  0.0000
  O3     O3        0.038846725878175    0.255449264106956    0.955828333282597  0.0000
  O1     O1        0.310937155891474    0.151696414842834    0.801437898842998  0.0000
  O1     O1        0.659872013948008    0.182765647531979    0.232254498055453  0.0000
  O1     O1        0.643094421314852    0.850700150280757    0.199269325129756  0.0000
  O3     O3        0.303551679061433    0.830281822081905    0.776396791698852  0.0000
  O1     O1        0.805365698813687    0.651390066287219    0.811146267799673  0.0000
  O3     O3        0.158249950607791    0.684892850460746    0.215880516349008  0.0000
  O3     O3        0.155302604436530    0.339337194111973    0.200351082247323  0.0000
  O1     O1        0.807522869010325    0.336198583915135    0.775557338679862  0.0000
  O1     O1        0.291422396145124    0.328442071621477    0.775253805253257  0.0000
  O1     O1        0.647549192197332    0.358410032846271    0.185390795035917  0.0000
  O1     O1        0.658966746760887    0.673339059617332    0.221101860674545  0.0000
  O3     O3        0.296154899744843    0.666396253375765    0.801690079208274  0.0000
  O1     O1        0.794869209443572    0.827007847816571    0.771708706214044  0.0000
  O3     O3        0.148400850670220    0.848645921716713    0.178397012764737  0.0000
  O3     O3        0.160379021749500    0.173021416470403    0.208418458484412  0.0000
  O1     O1        0.812109939178638    0.160924988711976    0.808638485598031  0.0000
  O3     O3        0.300169379378866    0.252002840114424    0.056228419124411  0.0000
  O1     O1        0.805784983428268    0.262202000564711    0.054397605824042  0.0000
  O1     O1        0.790648348610859    0.757874858590599    0.048903709246367  0.0000
  O2     O2        0.288058520858185    0.759458981183202    0.036388364526059  0.0000
  O1     O1        0.412403140865014    0.415943984535606    0.248145938650825  0.0000
  O1     O1        0.535511842946282    0.392477825479285    0.736832121990046  0.0000
  O1     O1        0.534308219940340    0.597789284618652    0.749256677068673  0.0000
  O1     O1        0.416736907239538    0.611594687768324    0.265931072556844  0.0000
  O1     O1        0.913070054255406    0.911079456507331    0.243922188962572  0.0000
  O1     O1        0.038173481323144    0.893532231491160    0.729935854428726  0.0000
  O1     O1        0.046271237221726    0.093271747575974    0.748680330305826  0.0000
  O1     O1        0.919937463182285    0.112189275941497    0.261726827764857  0.0000
  O1     O1        0.311453687406477    0.374641937970676    0.489446034178585  0.0000
  O1     O1        0.631520313036646    0.362133665365771    0.486855104007694  0.0000
  O1     O1        0.636624978603765    0.647079295062096    0.513403455678288  0.0000
  O1     O1        0.307034718731928    0.636172660306315    0.506767229501257  0.0000
  O1     O1        0.816450721126168    0.868754338325813    0.486119995519280  0.0000
  O1     O1        0.137766555627803    0.861728267270451    0.480728030316299  0.0000
  O1     O1        0.146156714936951    0.140437675803319    0.504135229409063  0.0000
  O1     O1        0.826812252536921    0.139513792701853    0.514457986070654  0.0000
  O1     O1        0.201674549340007    0.510877451373386    0.298468098870906  0.0000
  O1     O1        0.730454654844257    0.498139633592141    0.671115981909899  0.0000
  O1     O1        0.713147859081898    0.012249591562029    0.314216475537231  0.0000
  O1     O1        0.240562598114776    0.994316438122858    0.667455044846969  0.0000
  O1     O1        0.304795625525476    0.499278260586098    0.697589464699996  0.0000
  O1     O1        0.650198006387098    0.510499611042122    0.331562528528223  0.0000
  O1     O1        0.808641685602808    0.997264877405196    0.690456453971115  0.0000
  O1     O1        0.147929036672368    0.006863260433455    0.309615401702503  0.0000
