data_c00205.vasp
_audit_creation_method             Generated by GULP
_audit_author_name                 Salvador R. G. Balestra
_symmetry_space_group_name_H-M     'P 1             '
_symmetry_Int_Tables_number        1

loop_
_symmetry_equiv_pos_site_id
_symmetry_equiv_pos_as_xyz
_cell_length_a                       10.1780
_cell_length_b                       15.8631
_cell_length_c                        9.3325
_cell_angle_alpha                   89.8961
_cell_angle_beta                   105.8879
_cell_angle_gamma                   89.2257

loop_
_atom_site_label
_atom_site_type_symbol
_atom_site_fract_x
_atom_site_fract_y
_atom_site_fract_z
_atom_site_charge
  Ge     Ge        0.351599999999962    0.244500000000016    0.893900000000031  0.0000
  Ge     Ge        0.659317385594341    0.237328389722804    0.110612365401781  0.0000
  Ge     Ge        0.665180544604002    0.744935315454556    0.119350469835555  0.0000
  Ge     Ge        0.357756381746632    0.736566195361306    0.903882275600085  0.0000
  Ge     Ge        0.873553282288444    0.736490136007188    0.913156703349810  0.0000
  Ge     Ge        0.150633760754284    0.251281357735403    0.105505389058369  0.0000
  Ge     Ge        0.329426328827172    0.398245833172021    0.313992458365283  0.0000
  Ge     Ge        0.729838478609381    0.382263925333347    0.684877192770406  0.0000
  Ge     Ge        0.743500652624254    0.585140018464462    0.698912110361225  0.0000
  Ge     Ge        0.833858687977377    0.890312204917053    0.336488977099205  0.0000
  Ge     Ge        0.249201697578430    0.889405198189223    0.681729085049116  0.0000
  Ge     Ge        0.245675670655347    0.089333075747458    0.684514838366199  0.0000
  Ge     Ge        0.830145241354508    0.094425003425125    0.339502229746689  0.0000
  Ge     Ge        0.409850035833155    0.389522833843710    0.671907318357792  0.0000
  Ge     Ge        0.648033440988097    0.390913454631439    0.320720952686797  0.0000
  Ge     Ge        0.659646893732551    0.592031120765040    0.337943766011845  0.0000
  Ge     Ge        0.419488590427460    0.592075417366172    0.680748170917848  0.0000
  Ge     Ge        0.932258922413821    0.887429372827077    0.692686661542679  0.0000
  Ge     Ge        0.147480136323535    0.891323155822454    0.317668040634432  0.0000
  Ge     Ge        0.144163399496521    0.094680532327491    0.320560398217172  0.0000
  Ge     Ge        0.928617510481061    0.089816974466719    0.695840367237450  0.0000
  Si     Si        0.170197217231026    0.737713004538617    0.118590208937632  0.0000
  Si     Si        0.853415245115594    0.233677979237808    0.902483441676743  0.0000
  Si     Si        0.345040460621315    0.596383346078601    0.331259147044445  0.0000
  O1     O1        0.484068769857245    0.245506346221558    0.051545316058740  0.0000
  O1     O1        0.490319535446207    0.737645982258596    0.060542112073151  0.0000
  O3     O3        0.006424410888522    0.730452424579284    0.075014060493949  0.0000
  O3     O3        0.973079846506341    0.249120314843325    0.052102040457750  0.0000
  O1     O1        0.362411383012561    0.156112216762309    0.790677322755787  0.0000
  O1     O1        0.699046976207476    0.150872434383200    0.224518903655554  0.0000
  O1     O1        0.704732859840384    0.834941872361547    0.221824172168152  0.0000
  O1     O1        0.365675832079178    0.821488094526398    0.791841770962169  0.0000
  O1     O1        0.867138315154210    0.646689318093297    0.809572135275930  0.0000
  O2     O2        0.236497151597524    0.658298738500686    0.221685235922833  0.0000
  O1     O1        0.199260126953146    0.344064498657327    0.197696397050468  0.0000
  O3     O3        0.846930227403503    0.309667156519799    0.786066536527745  0.0000
  O1     O1        0.336626385795763    0.331600675939199    0.781751485563556  0.0000
  O1     O1        0.717420836350330    0.325611967029318    0.214201822348432  0.0000
  O1     O1        0.724386644139605    0.658399793526891    0.232145842730195  0.0000
  O1     O1        0.347149934944274    0.649210007843440    0.794078563630085  0.0000
  O1     O1        0.873974825814821    0.825984883262348    0.811582249617456  0.0000
  O3     O3        0.213415280843084    0.824125346589446    0.207838183257458  0.0000
  O1     O1        0.208267822386927    0.165142364282574    0.219229767388724  0.0000
  O3     O3        0.871977711413365    0.145880050104553    0.826009964945464  0.0000
  O1     O1        0.203150191863567    0.243378593189254    0.947983553307415  0.0000
  O3     O3        0.713258360912216    0.231033723918172    0.950944386130517  0.0000
  O1     O1        0.724560700977117    0.743054912885762    0.966114561062144  0.0000
  O3     O3        0.210177602036890    0.738723532829037    0.964133220938746  0.0000
  O1     O1        0.472470223457095    0.391823150303814    0.251402749591033  0.0000
  O1     O1        0.584653938517231    0.384418738484485    0.744412330735128  0.0000
  O1     O1        0.594226889275132    0.591271590984801    0.752107586001068  0.0000
  O3     O3        0.482091652712886    0.590282711033751    0.278564209021573  0.0000
  O1     O1        0.972087440288772    0.890492857519247    0.263761678218005  0.0000
  O1     O1        0.107157074592347    0.889910466114456    0.747322660310100  0.0000
  O1     O1        0.103576821418740    0.085667378353901    0.750300573491048  0.0000
  O1     O1        0.968364669237801    0.097434769862464    0.267674092130988  0.0000
  O1     O1        0.365312236831504    0.355915169149527    0.490444912835743  0.0000
  O1     O1        0.686413644158041    0.354255840873274    0.501185102336873  0.0000
  O1     O1        0.710495880865785    0.622713262504319    0.519645618524274  0.0000
  O3     O3        0.380181906434200    0.631005102067789    0.499105782753174  0.0000
  O1     O1        0.880714462876712    0.848992800326819    0.513803691160372  0.0000
  O1     O1        0.203321591087164    0.857889678648423    0.499083488421425  0.0000
  O1     O1        0.195936567953598    0.124259441042956    0.503770359978318  0.0000
  O1     O1        0.873017489608221    0.132117951584797    0.519548643882374  0.0000
  O3     O3        0.282637639263894    0.503493450058393    0.324306573862745  0.0000
  O1     O1        0.797322569557289    0.481742248047796    0.704343456015793  0.0000
  O1     O1        0.780336659891573    0.992287689597806    0.348563008590753  0.0000
  O1     O1        0.313316782851612    0.989241038619870    0.689206654742536  0.0000
  O1     O1        0.357496246238051    0.492432670502718    0.674739466192330  0.0000
  O1     O1        0.712519982579201    0.490128981043708    0.320950113886215  0.0000
  O1     O1        0.870234896742999    0.988703902510709    0.694952171109611  0.0000
  O1     O1        0.199112177060708    0.992950507932344    0.301895278835006  0.0000
