data_c00229.vasp
_audit_creation_method             Generated by GULP
_audit_author_name                 Salvador R. G. Balestra
_symmetry_space_group_name_H-M     'P 1             '
_symmetry_Int_Tables_number        1

loop_
_symmetry_equiv_pos_site_id
_symmetry_equiv_pos_as_xyz
_cell_length_a                       10.2052
_cell_length_b                       15.8565
_cell_length_c                        9.2963
_cell_angle_alpha                   90.6657
_cell_angle_beta                   105.8626
_cell_angle_gamma                   89.9523

loop_
_atom_site_label
_atom_site_type_symbol
_atom_site_fract_x
_atom_site_fract_y
_atom_site_fract_z
_atom_site_charge
  Ge     Ge        0.351599999999962    0.244500000000016    0.893900000000031  0.0000
  Ge     Ge        0.658997140809944    0.238714692832152    0.104354410043142  0.0000
  Ge     Ge        0.664470080130415    0.735827717333316    0.103185439558083  0.0000
  Ge     Ge        0.867620424253335    0.744366975395965    0.893110056662217  0.0000
  Ge     Ge        0.176578056350879    0.745169191291141    0.102868567941993  0.0000
  Ge     Ge        0.870731918654690    0.253471661016891    0.904709887135064  0.0000
  Ge     Ge        0.283779110805112    0.388351289290824    0.331902002542233  0.0000
  Ge     Ge        0.691377639642987    0.397661039729047    0.691030511622606  0.0000
  Ge     Ge        0.692153001596725    0.601502603139544    0.665400419445417  0.0000
  Ge     Ge        0.277508753604180    0.587873824673781    0.313443748251264  0.0000
  Ge     Ge        0.797897999803829    0.884453375302699    0.330324626535604  0.0000
  Ge     Ge        0.196479638724237    0.901602028447030    0.692283370583407  0.0000
  Ge     Ge        0.781748749297146    0.086664292750211    0.313274952208762  0.0000
  Ge     Ge        0.375776397024860    0.403361570402801    0.699232215408749  0.0000
  Ge     Ge        0.601877993917489    0.385790111980322    0.334490170231291  0.0000
  Ge     Ge        0.595865153890834    0.587046893852871    0.310042185269518  0.0000
  Ge     Ge        0.377804397703399    0.606009373370081    0.679871987613923  0.0000
  Ge     Ge        0.882085869971079    0.900475941011179    0.693797606758077  0.0000
  Ge     Ge        0.115015498111282    0.889607160619992    0.331259702483472  0.0000
  Ge     Ge        0.101599298324818    0.091749879164702    0.318220102447198  0.0000
  Ge     Ge        0.875549907188496    0.102158893955577    0.673625154291927  0.0000
  Si     Si        0.371213071231272    0.757934017641122    0.893943809916008  0.0000
  Si     Si        0.169238654254811    0.238200478834384    0.114077504285269  0.0000
  Si     Si        0.186674300544535    0.100186835772261    0.670492595991385  0.0000
  O1     O1        0.527114353208864    0.241210393088088    0.946222451170037  0.0000
  O3     O3        0.535025581179795    0.754992011156124    0.942905123446710  0.0000
  O1     O1        0.042834651619431    0.749723730440152    0.947634422262897  0.0000
  O3     O3        0.047315335055023    0.250097637896948    0.964734509111235  0.0000
  O3     O3        0.299840229512797    0.161160941289651    0.771868020140051  0.0000
  O1     O1        0.657853892332882    0.146219377024716    0.198826424985349  0.0000
  O1     O1        0.676931891869369    0.814604190148907    0.233894177898527  0.0000
  O3     O3        0.324691124761314    0.846377276932890    0.814410931129464  0.0000
  O1     O1        0.822722150314879    0.660819312309684    0.771602283414689  0.0000
  O1     O1        0.165462001684350    0.654332017698704    0.198936006140232  0.0000
  O3     O3        0.169966291106847    0.314444681372599    0.230161557331430  0.0000
  O1     O1        0.822064292826025    0.345946837503777    0.812467315222239  0.0000
  O1     O1        0.306192038284464    0.339077704413772    0.806482794744796  0.0000
  O1     O1        0.667142898652284    0.323460965848515    0.221795201645904  0.0000
  O1     O1        0.651466224916349    0.639659805779319    0.178439821004619  0.0000
  O3     O3        0.313400523102849    0.680848036464359    0.778917191975798  0.0000
  O1     O1        0.812642245085107    0.837145342638552    0.801098774893916  0.0000
  O1     O1        0.190381838173452    0.828507248921120    0.224881189919653  0.0000
  O3     O3        0.162716507779673    0.151069797082620    0.196720231981299  0.0000
  O1     O1        0.814646607940519    0.170783025650588    0.781304294972289  0.0000
  O3     O3        0.306071461816197    0.237917047148985    0.059122267655817  0.0000
  O1     O1        0.810362324474428    0.243107498733401    0.056136455598803  0.0000
  O1     O1        0.812571259505645    0.734224086153493    0.048930639153913  0.0000
  O3     O3        0.324486967257438    0.746623364124350    0.044073927045809  0.0000
  O1     O1        0.427007111327678    0.387910142848830    0.269872444294365  0.0000
  O1     O1        0.551148645429516    0.400452393722336    0.759794428899776  0.0000
  O1     O1        0.552730962051872    0.607360611950475    0.735682854937631  0.0000
  O1     O1        0.421679092684399    0.582122841165044    0.252724437872039  0.0000
  O1     O1        0.940116656522703    0.882389867635804    0.264273891604246  0.0000
  O1     O1        0.057512462499594    0.901524803921423    0.760556653574943  0.0000
  O3     O3        0.052504957934471    0.101633436426287    0.729249956392751  0.0000
  O1     O1        0.928065122945179    0.086718591604638    0.254508198536901  0.0000
  O1     O1        0.327577792165018    0.365537348584689    0.518235398912234  0.0000
  O1     O1        0.647570198026497    0.351276974069781    0.515969713964836  0.0000
  O1     O1        0.646569450611846    0.635239842206083    0.483375054101848  0.0000
  O1     O1        0.321431322400492    0.627638107163007    0.493375822885377  0.0000
  O1     O1        0.847460699668384    0.859149007623661    0.515648352679575  0.0000
  O1     O1        0.161944654956994    0.859121645222693    0.515493117610957  0.0000
  O3     O3        0.147188991539999    0.131649210071181    0.499527308003470  0.0000
  O1     O1        0.819764237008839    0.130007325846552    0.490335671551401  0.0000
  O1     O1        0.212917398411288    0.487636144500135    0.310955512545648  0.0000
  O1     O1        0.743126759011668    0.498393057424503    0.669365528712343  0.0000
  O1     O1        0.729715609975728    0.984261949663410    0.315489756025210  0.0000
  O3     O3        0.244799918884734    0.005624918792193    0.677779035115075  0.0000
  O1     O1        0.323599903038160    0.505900828045686    0.707525724221340  0.0000
  O1     O1        0.660606154416529    0.486805710179065    0.327278274544971  0.0000
  O1     O1        0.821251883567132    0.001157431692891    0.692628020605233  0.0000
  O1     O1        0.165225882867492    0.992041324640858    0.318987814811931  0.0000
