data_c00216.vasp
_audit_creation_method             Generated by GULP
_audit_author_name                 Salvador R. G. Balestra
_symmetry_space_group_name_H-M     'P 1             '
_symmetry_Int_Tables_number        1

loop_
_symmetry_equiv_pos_site_id
_symmetry_equiv_pos_as_xyz
_cell_length_a                       10.1356
_cell_length_b                       15.8235
_cell_length_c                        9.2812
_cell_angle_alpha                   90.3588
_cell_angle_beta                   105.0426
_cell_angle_gamma                   88.8885

loop_
_atom_site_label
_atom_site_type_symbol
_atom_site_fract_x
_atom_site_fract_y
_atom_site_fract_z
_atom_site_charge
  Ge     Ge        0.351599999999962    0.244500000000016    0.893900000000031  0.0000
  Ge     Ge        0.661499857504125    0.249860778423712    0.081773333018403  0.0000
  Ge     Ge        0.676435752133862    0.749587688545281    0.104592428853421  0.0000
  Ge     Ge        0.879978464221008    0.738511538622554    0.890421212118069  0.0000
  Ge     Ge        0.183301100494487    0.762136116129114    0.102275311138108  0.0000
  Ge     Ge        0.160516141972452    0.259482158651081    0.109469082700459  0.0000
  Ge     Ge        0.282129174818898    0.411920510912783    0.314600264300718  0.0000
  Ge     Ge        0.693866364392466    0.385090606899269    0.655199988942291  0.0000
  Ge     Ge        0.711356640599373    0.588663950406127    0.681599368827872  0.0000
  Ge     Ge        0.296448904010444    0.612322181834029    0.333819486460212  0.0000
  Ge     Ge        0.791135201892848    0.905501785179909    0.311154908394122  0.0000
  Ge     Ge        0.202812965849795    0.894338062148261    0.675807759992428  0.0000
  Ge     Ge        0.191231257155861    0.093994285865124    0.676351353842140  0.0000
  Ge     Ge        0.777565148146890    0.109641499874067    0.332856702791898  0.0000
  Ge     Ge        0.382517887627691    0.395985247470938    0.678251953345352  0.0000
  Ge     Ge        0.596604217346481    0.399999518421323    0.297234017018220  0.0000
  Ge     Ge        0.614573222768223    0.602001929128625    0.324290939768909  0.0000
  Ge     Ge        0.394532399777667    0.597813920889705    0.697515605338144  0.0000
  Ge     Ge        0.887614332605635    0.896025578937496    0.682588526794610  0.0000
  Ge     Ge        0.107593862375327    0.905824833974614    0.316542099210470  0.0000
  Ge     Ge        0.105510396275907    0.115186638161274    0.336773793523662  0.0000
  Si     Si        0.381457287278378    0.753863934376946    0.894302821289253  0.0000
  Si     Si        0.874846373391831    0.246061434266228    0.879495728106345  0.0000
  Si     Si        0.868436416637242    0.087998031816806    0.673856584910147  0.0000
  O1     O1        0.525812930313477    0.230303599837555    0.932182813241645  0.0000
  O3     O3        0.546282482473435    0.752281805903842    0.942310455634316  0.0000
  O1     O1        0.055262621864404    0.744246707282498    0.946452490727283  0.0000
  O3     O3        0.034320428470215    0.263893326393773    0.943785938828834  0.0000
  O1     O1        0.265447791570605    0.153616543837573    0.826367997336961  0.0000
  O1     O1        0.664029761796903    0.177062577294737    0.219277216513734  0.0000
  O1     O1        0.671543411879532    0.837401566558419    0.213312839728538  0.0000
  O3     O3        0.331327169396667    0.830148365429872    0.780750485107602  0.0000
  O1     O1        0.838252663352447    0.644138996968505    0.799048192018732  0.0000
  O1     O1        0.184550799344694    0.685504449843841    0.233745791006468  0.0000
  O1     O1        0.155692724642571    0.346673224908540    0.218782972627137  0.0000
  O3     O3        0.815198857009394    0.314314890924862    0.753978320993659  0.0000
  O1     O1        0.306213200846815    0.327193806836097    0.771170696211448  0.0000
  O1     O1        0.650452150114934    0.347131720052882    0.160557393952486  0.0000
  O1     O1        0.682500116770018    0.660517506902850    0.209310961726452  0.0000
  O3     O3        0.332683998749457    0.665182739339981    0.812462303508549  0.0000
  O1     O1        0.817702558546326    0.822413913787465    0.772933810638430  0.0000
  O1     O1        0.178995508310226    0.857671958716905    0.188936131699310  0.0000
  O1     O1        0.161288240944562    0.167687706517047    0.204600060369862  0.0000
  O2     O2        0.863217368784438    0.151919021386266    0.807203285093884  0.0000
  O1     O1        0.311874385940580    0.265020061484399    0.058686711030606  0.0000
  O3     O3        0.807825429132822    0.246556349615695    0.017754883410257  0.0000
  O1     O1        0.825100537114329    0.746742472127232    0.048879472735053  0.0000
  O3     O3        0.333706077665184    0.761691460019890    0.045356774655350  0.0000
  O1     O1        0.421934255068962    0.411382012578706    0.242034533821962  0.0000
  O1     O1        0.558429161524889    0.386329665286862    0.734510889056501  0.0000
  O1     O1        0.569424298516919    0.588582313839126    0.750536406226761  0.0000
  O1     O1        0.439420508589867    0.609150129440178    0.267113671671054  0.0000
  O1     O1        0.934326812460023    0.899049307320263    0.244980380399717  0.0000
  O1     O1        0.062829356843549    0.888109249176929    0.747175106655664  0.0000
  O3     O3        0.018389935899258    0.070108738822398    0.647508558352936  0.0000
  O1     O1        0.932476733994145    0.132001736612881    0.300491969859029  0.0000
  O1     O1        0.338146713878932    0.372789780938262    0.492238227727335  0.0000
  O1     O1        0.647345298477703    0.353762036638841    0.471608239798859  0.0000
  O1     O1        0.669383919351386    0.633983974888536    0.507351570375282  0.0000
  O1     O1        0.344504566842793    0.637385760825699    0.519635517844576  0.0000
  O1     O1        0.842327665617695    0.876426706268100    0.495088098016220  0.0000
  O1     O1        0.161700561543473    0.862460360047603    0.492414951173156  0.0000
  O1     O1        0.190983126310967    0.146357484367195    0.514704240402637  0.0000
  O3     O3        0.776600805959637    0.124855708803913    0.518650654428668  0.0000
  O1     O1        0.223332869118045    0.513910899472140    0.316450627754570  0.0000
  O1     O1        0.760304434794931    0.484625133853748    0.667089948582862  0.0000
  O1     O1        0.729348394790518    0.007382745553756    0.290983812118648  0.0000
  O1     O1        0.265803317592108    0.995233034840119    0.693139980838887  0.0000
  O1     O1        0.331927515215793    0.498190711477158    0.704293506842851  0.0000
  O1     O1        0.666087454227173    0.498659535010121    0.315585033062564  0.0000
  O3     O3        0.823027994933543    0.996191600229513    0.712778065983857  0.0000
  O1     O1        0.149616383342560    0.010245042579084    0.335167380610317  0.0000
