data_c00247.vasp
_audit_creation_method             Generated by GULP
_audit_author_name                 Salvador R. G. Balestra
_symmetry_space_group_name_H-M     'P 1             '
_symmetry_Int_Tables_number        1

loop_
_symmetry_equiv_pos_site_id
_symmetry_equiv_pos_as_xyz
_cell_length_a                       10.1900
_cell_length_b                       15.8193
_cell_length_c                        9.2968
_cell_angle_alpha                   90.5578
_cell_angle_beta                   105.5740
_cell_angle_gamma                   89.9602

loop_
_atom_site_label
_atom_site_type_symbol
_atom_site_fract_x
_atom_site_fract_y
_atom_site_fract_z
_atom_site_charge
  Ge     Ge        0.351599999999962    0.244500000000016    0.893900000000031  0.0000
  Ge     Ge        0.657738937986801    0.242688665401413    0.107745454830639  0.0000
  Ge     Ge        0.629730186812731    0.743643404144116    0.089675292161172  0.0000
  Ge     Ge        0.131686636134437    0.741802164883554    0.091981606021673  0.0000
  Ge     Ge        0.148799614517162    0.237128761981878    0.101923936042868  0.0000
  Ge     Ge        0.851220671658226    0.260628494532796    0.889280189527541  0.0000
  Ge     Ge        0.266815109807903    0.387304826487455    0.331741249859403  0.0000
  Ge     Ge        0.673264452530733    0.408168633686384    0.684753088022537  0.0000
  Ge     Ge        0.661735304102262    0.610721820613002    0.658846634993481  0.0000
  Ge     Ge        0.250726535012492    0.588767478609383    0.304378756051015  0.0000
  Ge     Ge        0.756352240797708    0.891401810357754    0.321054376710885  0.0000
  Ge     Ge        0.163183316967510    0.900390683106150    0.679270212449735  0.0000
  Ge     Ge        0.168340764719243    0.103436083946939    0.661574931220573  0.0000
  Ge     Ge        0.358020093078820    0.406314419995611    0.696376056037023  0.0000
  Ge     Ge        0.583709958408969    0.390788672138092    0.327689920216182  0.0000
  Ge     Ge        0.569915661289838    0.594213823289191    0.302998106790624  0.0000
  Ge     Ge        0.345137539487767    0.607788990359514    0.668125938644232  0.0000
  Ge     Ge        0.844225888090971    0.904569738268515    0.684715461766704  0.0000
  Ge     Ge        0.075715799117227    0.885827843216152    0.323863502217404  0.0000
  Ge     Ge        0.070806813418834    0.089646404010595    0.306574936292731  0.0000
  Ge     Ge        0.851763662112710    0.104879103063571    0.669518396408660  0.0000
  Si     Si        0.330337138485808    0.755877081880548    0.885652479512897  0.0000
  Si     Si        0.831245947583419    0.751236650240018    0.883866829241953  0.0000
  Si     Si        0.761462718300295    0.088932208800201    0.312057660559927  0.0000
  O1     O1        0.527212953074378    0.241629172365328    0.948012647493705  0.0000
  O3     O3        0.494064980427765    0.754421379333230    0.934515179163690  0.0000
  O3     O3        0.995374450812869    0.749722706656014    0.937249378639656  0.0000
  O1     O1        0.026221190624355    0.258342487702777    0.940301444133096  0.0000
  O1     O1        0.296929583297415    0.164629860171726    0.766791264838706  0.0000
  O3     O3        0.653283319134522    0.152008187089316    0.210999960577179  0.0000
  O1     O1        0.635083585003395    0.825601364489937    0.213593650094030  0.0000
  O3     O3        0.283313469150708    0.844917778990370    0.809515113450752  0.0000
  O3     O3        0.785869976979970    0.675176841132793    0.766699311806089  0.0000
  O1     O1        0.129296651122614    0.650086981601760    0.188432491293695  0.0000
  O1     O1        0.153171475447892    0.313680225448020    0.235560951221766  0.0000
  O1     O1        0.801347950451792    0.355850728240682    0.807766737471480  0.0000
  O1     O1        0.300438340426762    0.340684634541138    0.811157091613678  0.0000
  O1     O1        0.655862548193445    0.329575680796638    0.218161211825907  0.0000
  O1     O1        0.630076452469001    0.649111068208806    0.176491933746531  0.0000
  O3     O3        0.276093686991630    0.679965077741533    0.767517564656288  0.0000
  O3     O3        0.783759801210490    0.839632819441395    0.801234507862645  0.0000
  O1     O1        0.147481055964558    0.825531264678049    0.212661217003735  0.0000
  O1     O1        0.123471910815872    0.140365253757619    0.171418020357561  0.0000
  O1     O1        0.786756479147417    0.180237114559130    0.763072816900983  0.0000
  O1     O1        0.299956179522595    0.233610716648033    0.053095444409992  0.0000
  O1     O1        0.805208828339748    0.247212525838224    0.052094010374233  0.0000
  O3     O3        0.776010218948582    0.742794694108082    0.028059879287524  0.0000
  O3     O3        0.278917816738423    0.742338344889872    0.031889733231766  0.0000
  O1     O1        0.408917607642454    0.385837538118990    0.264903585096396  0.0000
  O1     O1        0.533089330186563    0.410742443318441    0.753832049515123  0.0000
  O1     O1        0.520194920248051    0.610164026752321    0.725364196477870  0.0000
  O1     O1        0.395613535736608    0.587938094084572    0.243465819829233  0.0000
  O1     O1        0.900924645570859    0.880092336968144    0.261811907944308  0.0000
  O1     O1        0.018613179288980    0.909787356556559    0.738666232895490  0.0000
  O1     O1        0.027069360667183    0.108868952042126    0.729317269231168  0.0000
  O3     O3        0.894568327806860    0.083085236279817    0.250592929231479  0.0000
  O1     O1        0.313635982929628    0.364835299008806    0.517957742703276  0.0000
  O1     O1        0.632609142863879    0.360287490501008    0.511317708225104  0.0000
  O1     O1        0.617242562012503    0.642565169142326    0.476227613659584  0.0000
  O1     O1        0.291545410351779    0.630986267527474    0.482389447782162  0.0000
  O1     O1        0.790696345601555    0.865202618139250    0.505913740024606  0.0000
  O1     O1        0.124789311953182    0.852723866553761    0.506523797397284  0.0000
  O1     O1        0.126784268864780    0.136978753716708    0.478772710135011  0.0000
  O3     O3        0.808364160170891    0.125090681912826    0.480205190121474  0.0000
  O1     O1        0.195565558766168    0.486817037903271    0.308919584993084  0.0000
  O1     O1        0.724362822286119    0.509830616019636    0.665470579588486  0.0000
  O3     O3        0.699417440176371    0.995416945356990    0.308809875559051  0.0000
  O1     O1        0.223075912065456    0.000433071765781    0.666195481742916  0.0000
  O1     O1        0.293828582258843    0.506756994789713    0.695799423291137  0.0000
  O1     O1        0.634593971952979    0.493756205818108    0.317825533656035  0.0000
  O1     O1        0.790187483424069    0.006714477563793    0.695896407859773  0.0000
  O1     O1        0.130253235095284    0.987895864454845    0.320009674710775  0.0000
