data_c00211.vasp
_audit_creation_method             Generated by GULP
_audit_author_name                 Salvador R. G. Balestra
_symmetry_space_group_name_H-M     'P 1             '
_symmetry_Int_Tables_number        1

loop_
_symmetry_equiv_pos_site_id
_symmetry_equiv_pos_as_xyz
_cell_length_a                       10.1990
_cell_length_b                       15.8149
_cell_length_c                        9.3198
_cell_angle_alpha                   90.4126
_cell_angle_beta                   105.6082
_cell_angle_gamma                   89.9481

loop_
_atom_site_label
_atom_site_type_symbol
_atom_site_fract_x
_atom_site_fract_y
_atom_site_fract_z
_atom_site_charge
  Ge     Ge        0.351599999999962    0.244500000000016    0.893900000000031  0.0000
  Ge     Ge        0.661118209008217    0.242348927161799    0.108626002812232  0.0000
  Ge     Ge        0.650725251763761    0.742674520842420    0.102391795727423  0.0000
  Ge     Ge        0.346264119607294    0.756059999689404    0.888875192862763  0.0000
  Ge     Ge        0.855397765002748    0.747586637957559    0.894609394547053  0.0000
  Ge     Ge        0.860120090519853    0.258656847581285    0.894852061695251  0.0000
  Ge     Ge        0.273523320388857    0.388888212035807    0.319970204240881  0.0000
  Ge     Ge        0.678226989607550    0.401997790056257    0.684154647568342  0.0000
  Ge     Ge        0.672149103036139    0.606510087885207    0.665446313704251  0.0000
  Ge     Ge        0.265874565157220    0.590638598805338    0.302656586378151  0.0000
  Ge     Ge        0.771554572031203    0.893503881794891    0.323753098852674  0.0000
  Ge     Ge        0.178017944475681    0.901783747951908    0.671154754024137  0.0000
  Ge     Ge        0.178801069357861    0.105685543223131    0.655924772415047  0.0000
  Ge     Ge        0.360083083953676    0.400942449562587    0.685784346068470  0.0000
  Ge     Ge        0.594488635603528    0.389660244368501    0.329994781023502  0.0000
  Ge     Ge        0.585362680096119    0.592632110202974    0.311441652784886  0.0000
  Ge     Ge        0.354953349807137    0.603655459916162    0.668403693873902  0.0000
  Ge     Ge        0.863269760939473    0.904703184416205    0.686309006033105  0.0000
  Ge     Ge        0.086619781865831    0.890555771460181    0.314617064425699  0.0000
  Ge     Ge        0.080834068312545    0.094250844097522    0.301906950734930  0.0000
  Ge     Ge        0.863327148383972    0.106295668931587    0.668428240092144  0.0000
  Si     Si        0.154755980234110    0.745189801230556    0.100053954196790  0.0000
  Si     Si        0.154223284199560    0.239955746955677    0.099097416995920  0.0000
  Si     Si        0.771268750056342    0.090774388754081    0.314380787120476  0.0000
  O1     O1        0.526498479696680    0.243019831857982    0.953906536847576  0.0000
  O1     O1        0.520869229049764    0.753029915580985    0.944254466630221  0.0000
  O3     O3        0.032504307147437    0.745545245903823    0.950275070807350  0.0000
  O3     O3        0.036840177164470    0.258266091186219    0.948995852115757  0.0000
  O1     O1        0.307544886328710    0.162846460115294    0.769243046881797  0.0000
  O3     O3        0.659647224673388    0.151067020982708    0.211133812988473  0.0000
  O1     O1        0.650470059046477    0.826085566713856    0.222321740134310  0.0000
  O1     O1        0.304299514225133    0.848590605134754    0.794596933590447  0.0000
  O1     O1        0.802363164633919    0.665096658485411    0.773422191579057  0.0000
  O3     O3        0.150581074394199    0.660012819956059    0.193000176247900  0.0000
  O3     O3        0.160593211726954    0.314350714410725    0.219479195950336  0.0000
  O1     O1        0.808249418612381    0.352804945685514    0.810010874728560  0.0000
  O1     O1        0.298459387740981    0.337120249389269    0.800265626636614  0.0000
  O1     O1        0.665794758745066    0.329469153157659    0.219174675094580  0.0000
  O1     O1        0.647495092767891    0.647798607481513    0.187984930845405  0.0000
  O1     O1        0.285811542499657    0.672944338287087    0.769216774724928  0.0000
  O1     O1        0.803659716090566    0.840576564058075    0.801250321728120  0.0000
  O3     O3        0.153642533389756    0.827033877708387    0.201667266771326  0.0000
  O3     O3        0.128343942215526    0.150476731990898    0.166580390725892  0.0000
  O1     O1        0.799269572450968    0.178915248285077    0.767098983713832  0.0000
  O3     O3        0.294873731956844    0.235506262762947    0.051932540250187  0.0000
  O1     O1        0.807750352909873    0.244719463417521    0.051785203217413  0.0000
  O1     O1        0.800253049288643    0.741809756013429    0.050352599287538  0.0000
  O3     O3        0.294317912916282    0.748176751459527    0.050189227450055  0.0000
  O1     O1        0.419781111579847    0.387869972265201    0.262673468768435  0.0000
  O1     O1        0.534989737849016    0.401525051649274    0.747613329692384  0.0000
  O1     O1        0.530133946986214    0.609556766062180    0.731281774443937  0.0000
  O1     O1        0.411293530924566    0.585839135242974    0.244680233180936  0.0000
  O1     O1        0.912070974105197    0.887100171622340    0.256054348136617  0.0000
  O1     O1        0.038212072702541    0.905450180752344    0.739679845206725  0.0000
  O1     O1        0.038214658705886    0.110952968058764    0.723637819443133  0.0000
  O3     O3        0.905234901805910    0.085406256652181    0.254422190160952  0.0000
  O1     O1        0.312193904073505    0.363833063616059    0.505204516414855  0.0000
  O1     O1        0.639741471452427    0.354770778882086    0.510833078339822  0.0000
  O1     O1        0.627652606419230    0.640669145301661    0.483876196557535  0.0000
  O1     O1        0.306226709615467    0.627866309344441    0.482698658965981  0.0000
  O1     O1        0.813500331911642    0.865500832300762    0.507395210103701  0.0000
  O1     O1        0.137426919463344    0.856675320397436    0.495833947834259  0.0000
  O1     O1        0.139798186751819    0.140352607722775    0.473865364010104  0.0000
  O3     O3        0.815159662263318    0.129272772817242    0.480539498068610  0.0000
  O1     O1        0.203643840053914    0.489012231526108    0.296037350749571  0.0000
  O1     O1        0.726438136279552    0.503915994707234    0.665157495651895  0.0000
  O3     O3        0.711819739396561    0.996888927066115    0.315182611593050  0.0000
  O1     O1        0.230195728920494    0.002840381104125    0.651005902162208  0.0000
  O1     O1        0.301987689670304    0.502431417573033    0.689488727401760  0.0000
  O1     O1        0.649898614017418    0.491979959497455    0.327044812494048  0.0000
  O1     O1        0.807831385544574    0.006666804358717    0.694979251580713  0.0000
  O1     O1        0.140669129207313    0.992633605336247    0.302754639545335  0.0000
