data_c00217.vasp
_audit_creation_method             Generated by GULP
_audit_author_name                 Salvador R. G. Balestra
_symmetry_space_group_name_H-M     'P 1             '
_symmetry_Int_Tables_number        1

loop_
_symmetry_equiv_pos_site_id
_symmetry_equiv_pos_as_xyz
_cell_length_a                       10.2034
_cell_length_b                       15.8427
_cell_length_c                        9.2450
_cell_angle_alpha                   90.7866
_cell_angle_beta                   105.4183
_cell_angle_gamma                   89.6006

loop_
_atom_site_label
_atom_site_type_symbol
_atom_site_fract_x
_atom_site_fract_y
_atom_site_fract_z
_atom_site_charge
  Ge     Ge        0.351599999999962    0.244500000000016    0.893900000000031  0.0000
  Ge     Ge        0.661078054478117    0.235634398383563    0.100404780424664  0.0000
  Ge     Ge        0.660272254100354    0.731554707833311    0.104016607119600  0.0000
  Ge     Ge        0.863349465085820    0.742747792913546    0.891670286222334  0.0000
  Ge     Ge        0.170561481402482    0.741260202842249    0.102741956929381  0.0000
  Ge     Ge        0.152210026755160    0.231436007182944    0.111348984542672  0.0000
  Ge     Ge        0.280683399512727    0.382901286969669    0.336956705396054  0.0000
  Ge     Ge        0.686706847668541    0.395883971751839    0.694357095184154  0.0000
  Ge     Ge        0.690132948152753    0.598298910124123    0.664775316227334  0.0000
  Ge     Ge        0.275021962534332    0.583951810988279    0.312892297121878  0.0000
  Ge     Ge        0.788957894522104    0.879885861465742    0.333416731726959  0.0000
  Ge     Ge        0.193083091888147    0.899313422768641    0.692412674908571  0.0000
  Ge     Ge        0.185050977235905    0.100298076120219    0.660472827263768  0.0000
  Ge     Ge        0.774893221968622    0.081424788947313    0.312354698474278  0.0000
  Ge     Ge        0.371591227047653    0.404363742132231    0.703961849579538  0.0000
  Ge     Ge        0.597825364755405    0.378826822816443    0.335368293067740  0.0000
  Ge     Ge        0.591315958166584    0.581049609425823    0.306722351128938  0.0000
  Ge     Ge        0.375713780721654    0.605446054564944    0.678495898839236  0.0000
  Ge     Ge        0.876895948961073    0.902654147942827    0.698481055508715  0.0000
  Ge     Ge        0.103988260103943    0.884443449061600    0.331570282224402  0.0000
  Ge     Ge        0.869098363032734    0.104011503606746    0.673888701070046  0.0000
  Si     Si        0.367634580362647    0.755749616971160    0.896500632901802  0.0000
  Si     Si        0.861363187940722    0.252418635899249    0.897198651285134  0.0000
  Si     Si        0.087012218216902    0.082760278435979    0.310341481990576  0.0000
  O1     O1        0.527279734129236    0.243003886188458    0.947069103640859  0.0000
  O3     O3        0.531109202684998    0.753250391539314    0.944798370222532  0.0000
  O1     O1        0.038665536372149    0.745408932524253    0.946080186575205  0.0000
  O3     O3        0.024867222179095    0.249991361241536    0.949307028542608  0.0000
  O1     O1        0.304673107011877    0.169646900121153    0.754830677750900  0.0000
  O1     O1        0.658604968359694    0.141080281532058    0.189364185579407  0.0000
  O1     O1        0.670670356919342    0.808457893277736    0.238835090529260  0.0000
  O3     O3        0.317677512022812    0.844172613266350    0.819375374721127  0.0000
  O1     O1        0.817414558333521    0.661841495623761    0.764144920615807  0.0000
  O1     O1        0.161174265100467    0.650496683125034    0.200023379534350  0.0000
  O1     O1        0.163047058552466    0.311391340961418    0.239882421912225  0.0000
  O3     O3        0.813091112025889    0.340955183986259    0.819175271295814  0.0000
  O1     O1        0.306128460808905    0.342843728440273    0.818515815649004  0.0000
  O1     O1        0.671157172972547    0.315544786966294    0.228953451379517  0.0000
  O1     O1        0.646980640071132    0.634004068586864    0.174904219865124  0.0000
  O3     O3        0.310551314110951    0.680324362679454    0.777831739364088  0.0000
  O1     O1        0.811594372427206    0.838572990323768    0.809023747716882  0.0000
  O1     O1        0.181553121511283    0.826338648804210    0.222139180211731  0.0000
  O3     O3        0.137797351248242    0.134689376024016    0.188465040990507  0.0000
  O3     O3        0.805580271182556    0.176798243379268    0.778527649734201  0.0000
  O1     O1        0.297227717839681    0.226260258550260    0.049562028273473  0.0000
  O3     O3        0.810954477677212    0.240298239519316    0.045383972770575  0.0000
  O1     O1        0.807647644048993    0.729519471206727    0.047639891531210  0.0000
  O3     O3        0.320469987180970    0.742045035834620    0.046933409811465  0.0000
  O1     O1        0.422979081744273    0.375516365721779    0.270427380690102  0.0000
  O1     O1        0.546859880001168    0.404675502166304    0.762887753026435  0.0000
  O1     O1        0.550329491049524    0.605085752014558    0.735633010273628  0.0000
  O1     O1        0.417620806025066    0.575544281001272    0.248559170994756  0.0000
  O1     O1        0.930815873339902    0.873221430991435    0.265569459226413  0.0000
  O1     O1        0.051845758429123    0.906344406936413    0.758588834918351  0.0000
  O1     O1        0.043593359759389    0.105029100212682    0.727897695544422  0.0000
  O3     O3        0.924690483114997    0.074569487840138    0.257792704287202  0.0000
  O1     O1        0.326433348640384    0.362432469490451    0.524877343195510  0.0000
  O1     O1        0.643035253397049    0.348648949806018    0.520072765857220  0.0000
  O1     O1        0.642582961760228    0.629014300857328    0.480349300222507  0.0000
  O1     O1        0.322302202725093    0.626798964531635    0.491189779705376  0.0000
  O1     O1        0.838508311100160    0.858969896375137    0.520848252172738  0.0000
  O1     O1        0.155026313230423    0.854212483111510    0.516177821122499  0.0000
  O3     O3        0.133358175613237    0.128151404310158    0.472521881319394  0.0000
  O1     O1        0.808731081471101    0.127310617946389    0.487691836135444  0.0000
  O1     O1        0.213419015830606    0.483638090519002    0.315071938063364  0.0000
  O1     O1        0.745347374743283    0.495394860273099    0.675526627193241  0.0000
  O1     O1        0.719721953609598    0.979900333726612    0.314206552243347  0.0000
  O1     O1        0.250548198428751    0.000083518767647    0.680429705718168  0.0000
  O1     O1        0.316489909349635    0.506771972926415    0.705278825076580  0.0000
  O1     O1        0.653541336907491    0.479883631877817    0.323999820929736  0.0000
  O1     O1        0.814986845864316    0.003512617032667    0.697996909038394  0.0000
  O3     O3        0.150349353999592    0.989246249065880    0.325351287941293  0.0000
