data_c00207.vasp
_audit_creation_method             Generated by GULP
_audit_author_name                 Salvador R. G. Balestra
_symmetry_space_group_name_H-M     'P 1             '
_symmetry_Int_Tables_number        1

loop_
_symmetry_equiv_pos_site_id
_symmetry_equiv_pos_as_xyz
_cell_length_a                       10.1918
_cell_length_b                       15.8207
_cell_length_c                        9.3070
_cell_angle_alpha                   89.7248
_cell_angle_beta                   105.3520
_cell_angle_gamma                   89.5776

loop_
_atom_site_label
_atom_site_type_symbol
_atom_site_fract_x
_atom_site_fract_y
_atom_site_fract_z
_atom_site_charge
  Ge     Ge        0.351599999999962    0.244500000000016    0.893900000000031  0.0000
  Ge     Ge        0.657760771443617    0.260936350957654    0.101334565600828  0.0000
  Ge     Ge        0.654733271201484    0.757567238737537    0.106674350722833  0.0000
  Ge     Ge        0.349160271800258    0.754403291905706    0.890927805886099  0.0000
  Ge     Ge        0.858961559730951    0.746924685354342    0.898188671459457  0.0000
  Ge     Ge        0.863890257402347    0.252425466623812    0.890488305410857  0.0000
  Ge     Ge        0.271259718868416    0.409864465995939    0.305096013487652  0.0000
  Ge     Ge        0.679779527005740    0.395644840236995    0.664268370185755  0.0000
  Ge     Ge        0.680284485942912    0.600314223951394    0.686400820310050  0.0000
  Ge     Ge        0.275084570277423    0.611526520186031    0.320059148641374  0.0000
  Ge     Ge        0.765517176127690    0.912836141437682    0.313274886917991  0.0000
  Ge     Ge        0.180131228178797    0.896638403463137    0.658927032674370  0.0000
  Ge     Ge        0.181053538675554    0.100451741619318    0.673687950911771  0.0000
  Ge     Ge        0.774265573386754    0.112928297717931    0.333133366040887  0.0000
  Ge     Ge        0.362668882643117    0.395774026863564    0.670135994260173  0.0000
  Ge     Ge        0.590384476515315    0.409281909073864    0.309279976173909  0.0000
  Ge     Ge        0.595343615751313    0.611623159099543    0.331337087275347  0.0000
  Ge     Ge        0.361823426359162    0.598380631746920    0.685572723804947  0.0000
  Ge     Ge        0.867423233521047    0.899544599295010    0.675478273331278  0.0000
  Ge     Ge        0.082635596306318    0.908678855413883    0.302818694995388  0.0000
  Ge     Ge        0.091237322919834    0.111897005269871    0.319321748201302  0.0000
  Si     Si        0.155235657150719    0.761092584765002    0.101124313550688  0.0000
  Si     Si        0.159026813684934    0.256673013099312    0.103070399051394  0.0000
  Si     Si        0.871474460605900    0.097991051308507    0.686837270387599  0.0000
  O1     O1        0.526197356079470    0.244429750069725    0.947266793348891  0.0000
  O1     O1        0.524224337116351    0.752224201360255    0.949310481759995  0.0000
  O3     O3        0.035709064962971    0.744778297604266    0.952849794713198  0.0000
  O3     O3        0.040048334169888    0.257946931254767    0.950745600719609  0.0000
  O1     O1        0.303150398002485    0.151460175966765    0.803494448666782  0.0000
  O1     O1        0.660406080359333    0.185988384262299    0.237148378968292  0.0000
  O1     O1        0.646032449820803    0.848557691121214    0.204595401822881  0.0000
  O1     O1        0.308651254625549    0.837242874266448    0.768475040076344  0.0000
  O1     O1        0.807174943004006    0.654637407613311    0.806215484203398  0.0000
  O3     O3        0.161145924440196    0.685903810295992    0.220156393974010  0.0000
  O3     O3        0.154280308356094    0.341122975522645    0.197798398047715  0.0000
  O1     O1        0.808889036452323    0.334943262377537    0.771084332897075  0.0000
  O1     O1        0.294135581628045    0.327010549916888    0.772011274752498  0.0000
  O1     O1        0.650530342190342    0.358330056619927    0.178298121514376  0.0000
  O1     O1        0.667262397149265    0.671710014621733    0.221860003508701  0.0000
  O1     O1        0.295298905113424    0.662388274210135    0.796887434490984  0.0000
  O1     O1        0.801746957771210    0.832144260618545    0.781220638702759  0.0000
  O3     O3        0.137059492011396    0.850715877993476    0.172759390030053  0.0000
  O3     O3        0.153801681735907    0.174204679971744    0.201297071366525  0.0000
  O3     O3        0.817573357165329    0.157762057617646    0.797405911689306  0.0000
  O3     O3        0.300392748329191    0.254493141885142    0.055928901850851  0.0000
  O1     O1        0.805143922936226    0.255755590586278    0.045166042039236  0.0000
  O1     O1        0.804735098297336    0.757540089830093    0.054792658903062  0.0000
  O3     O3        0.294804407320681    0.763413024436721    0.050682116256738  0.0000
  O1     O1        0.416075111295115    0.414873054762188    0.245331865300829  0.0000
  O1     O1        0.537780718522137    0.390665913279315    0.730995723681452  0.0000
  O1     O1        0.536631528344536    0.597878253584919    0.749580115197318  0.0000
  O1     O1        0.421025121832298    0.612715250573120    0.261455911886513  0.0000
  O1     O1        0.908878014690927    0.916520816335293    0.248938932947135  0.0000
  O1     O1        0.041538730273755    0.890641945165550    0.730532677501001  0.0000
  O3     O3        0.035142051388058    0.095246541654277    0.735023113951069  0.0000
  O1     O1        0.916827321209080    0.114402633805775    0.267466167248839  0.0000
  O1     O1        0.314230298734015    0.371580704250644    0.484439752997112  0.0000
  O1     O1        0.637044089650453    0.361934934333504    0.482371619776268  0.0000
  O1     O1        0.638221269601211    0.646431761876088    0.512124710119358  0.0000
  O1     O1        0.315434873135290    0.636208837321332    0.505526792186027  0.0000
  O1     O1        0.812036990982565    0.872838305660692    0.491722470441808  0.0000
  O1     O1        0.135570064717144    0.863170591020393    0.476549734190709  0.0000
  O1     O1        0.148283607118072    0.146570632573346    0.500128284292920  0.0000
  O3     O3        0.823233739960775    0.136544813056211    0.520806734054198  0.0000
  O1     O1        0.207141097218308    0.511235276870052    0.298413270116399  0.0000
  O1     O1        0.733655735969720    0.498377443307043    0.671383897441835  0.0000
  O1     O1        0.703854058387321    0.014102131514947    0.311794031086578  0.0000
  O1     O1        0.233461330938279    0.998906077540102    0.656446338923354  0.0000
  O1     O1        0.306342500052415    0.496746606904581    0.689712385930869  0.0000
  O1     O1        0.653624472205271    0.509740407779818    0.329961215997848  0.0000
  O3     O3        0.816209970985321    0.003538171499348    0.691606928649716  0.0000
  O1     O1        0.145379385890272    0.009633585275477    0.307783459354430  0.0000
