data_c00236.vasp
_audit_creation_method             Generated by GULP
_audit_author_name                 Salvador R. G. Balestra
_symmetry_space_group_name_H-M     'P 1             '
_symmetry_Int_Tables_number        1

loop_
_symmetry_equiv_pos_site_id
_symmetry_equiv_pos_as_xyz
_cell_length_a                       10.2221
_cell_length_b                       15.8524
_cell_length_c                        9.2491
_cell_angle_alpha                   90.7114
_cell_angle_beta                   105.3446
_cell_angle_gamma                   89.8969

loop_
_atom_site_label
_atom_site_type_symbol
_atom_site_fract_x
_atom_site_fract_y
_atom_site_fract_z
_atom_site_charge
  Ge     Ge        0.351599999999962    0.244500000000016    0.893900000000031  0.0000
  Ge     Ge        0.650861302730957    0.219981371358195    0.103666235613221  0.0000
  Ge     Ge        0.668529320626105    0.732404830156697    0.100098497664334  0.0000
  Ge     Ge        0.876333928259592    0.744629425457875    0.889446837565179  0.0000
  Ge     Ge        0.153594682396236    0.235099530642295    0.108945824584376  0.0000
  Ge     Ge        0.851457553473510    0.235567479017988    0.893265773570991  0.0000
  Ge     Ge        0.331518244431296    0.379347373052371    0.335789036280138  0.0000
  Ge     Ge        0.742308184322530    0.393642711345352    0.689915316349515  0.0000
  Ge     Ge        0.742136999425931    0.595080930255251    0.663619993674358  0.0000
  Ge     Ge        0.334595799297253    0.581765598387899    0.311435083228084  0.0000
  Ge     Ge        0.839522351961457    0.871825851641060    0.339978845085597  0.0000
  Ge     Ge        0.249377586558738    0.890998242180413    0.687764342963280  0.0000
  Ge     Ge        0.237821845775697    0.091341552960416    0.669588779420298  0.0000
  Ge     Ge        0.830484709022791    0.073692340150548    0.310443526558086  0.0000
  Ge     Ge        0.428107282294382    0.396514377906506    0.695803906413193  0.0000
  Ge     Ge        0.645017095552939    0.374189418191225    0.324800874415238  0.0000
  Ge     Ge        0.650026336938975    0.575189648198324    0.299284573481272  0.0000
  Ge     Ge        0.425463879133807    0.599283223979763    0.670462120687552  0.0000
  Ge     Ge        0.155692422334202    0.871362640946638    0.324766619792176  0.0000
  Ge     Ge        0.144695621880380    0.073018187089631    0.301260006405015  0.0000
  Ge     Ge        0.923570355428077    0.089870131970962    0.669832301128900  0.0000
  Si     Si        0.364403802448584    0.740272940643856    0.898294466214290  0.0000
  Si     Si        0.170044101232305    0.724455251783110    0.103012614451764  0.0000
  Si     Si        0.936346626137988    0.892442033245015    0.687667890818124  0.0000
  O1     O1        0.476813939339399    0.223679646574199    0.053468188224276  0.0000
  O3     O3        0.492673053345668    0.736636108383901    0.039306016711298  0.0000
  O3     O3        0.007795996446787    0.727178999349583    0.046374406676369  0.0000
  O1     O1        0.978454887789307    0.233674276598445    0.055644361789371  0.0000
  O1     O1        0.349882586996556    0.166518507596915    0.762424783630066  0.0000
  O1     O1        0.702135422656516    0.126129621879799    0.189090999863305  0.0000
  O1     O1        0.716676725243327    0.804934729413078    0.242939793923313  0.0000
  O3     O3        0.361936767746157    0.827908992150496    0.811482803517899  0.0000
  O1     O1        0.862967283356949    0.664268581654187    0.761958124343155  0.0000
  O3     O3        0.210268776134113    0.636669990373396    0.185251086644914  0.0000
  O1     O1        0.203907609428073    0.315762659273942    0.236187249656770  0.0000
  O1     O1        0.859333640427543    0.327065414121769    0.797026902864533  0.0000
  O1     O1        0.368133184224733    0.341913178514743    0.822643951989117  0.0000
  O1     O1        0.712509489133892    0.301541425864489    0.228139829052792  0.0000
  O1     O1        0.709706610289156    0.634277720568855    0.176701612662543  0.0000
  O3     O3        0.357119390026535    0.664006088221127    0.781843616390375  0.0000
  O3     O3        0.889243227829369    0.841641123340098    0.813027740795252  0.0000
  O3     O3        0.222588926008390    0.800918177062635    0.219726977076991  0.0000
  O1     O1        0.207522053978070    0.139845350588147    0.192365501456641  0.0000
  O1     O1        0.848171821680743    0.149042331572981    0.779038178058146  0.0000
  O1     O1        0.203079165962356    0.247203954661007    0.948169385376579  0.0000
  O1     O1        0.700433390655434    0.232666734685086    0.942470118320793  0.0000
  O1     O1        0.732144347514516    0.750242143417823    0.951538913283568  0.0000
  O2     O2        0.228678310122707    0.734413798429497    0.957775477280312  0.0000
  O1     O1        0.470061441430086    0.372868522805514    0.263740910724116  0.0000
  O1     O1        0.601754586625832    0.401124512005186    0.758163327824911  0.0000
  O1     O1        0.599767260445608    0.602436061146617    0.729801819301358  0.0000
  O1     O1        0.475472875720466    0.573867319299548    0.245668956471787  0.0000
  O1     O1        0.981586310668932    0.866169459700630    0.273811009701397  0.0000
  O3     O3        0.098469390115026    0.902340429938008    0.736340830741514  0.0000
  O1     O1        0.096208534224212    0.098333866944208    0.737345612310561  0.0000
  O1     O1        0.970395263999161    0.070093910733384    0.240994832031056  0.0000
  O1     O1        0.378263382112267    0.350092708229357    0.520978945159160  0.0000
  O1     O1        0.689652704444483    0.351675808411021    0.511838856293857  0.0000
  O1     O1        0.699582902652943    0.618559852855481    0.476983691225698  0.0000
  O1     O1        0.375291581378054    0.629055498958235    0.486123245128042  0.0000
  O3     O3        0.889413939352328    0.844306154535985    0.528110170532107  0.0000
  O1     O1        0.219216828996845    0.848361966653167    0.511040324148326  0.0000
  O1     O1        0.187224990736392    0.111720146816310    0.482030208700129  0.0000
  O1     O1        0.872968345692216    0.120328880960909    0.485770666551614  0.0000
  O1     O1        0.275848130858544    0.482073697088401    0.327536347826759  0.0000
  O1     O1        0.804640549788733    0.493676586564620    0.684774913807237  0.0000
  O1     O1        0.777055260148540    0.972155247368618    0.323789954259441  0.0000
  O1     O1        0.309755941060353    0.992248356297773    0.693014763395821  0.0000
  O1     O1        0.369311384417248    0.498645322244649    0.683494029606290  0.0000
  O1     O1        0.705360746044969    0.473161356424930    0.301212891717004  0.0000
  O3     O3        0.872666851730317    0.985351697062413    0.672720496594384  0.0000
  O1     O1        0.205375004338449    0.972292326873265    0.297551472790484  0.0000
