data_c00202.vasp
_audit_creation_method             Generated by GULP
_audit_author_name                 Salvador R. G. Balestra
_symmetry_space_group_name_H-M     'P 1             '
_symmetry_Int_Tables_number        1

loop_
_symmetry_equiv_pos_site_id
_symmetry_equiv_pos_as_xyz
_cell_length_a                       10.1876
_cell_length_b                       15.8354
_cell_length_c                        9.3110
_cell_angle_alpha                   90.3446
_cell_angle_beta                   105.3219
_cell_angle_gamma                   89.7887

loop_
_atom_site_label
_atom_site_type_symbol
_atom_site_fract_x
_atom_site_fract_y
_atom_site_fract_z
_atom_site_charge
  Ge     Ge        0.351599999999962    0.244500000000016    0.893900000000031  0.0000
  Ge     Ge        0.656039465869644    0.231113977919710    0.108291328375059  0.0000
  Ge     Ge        0.654850407493892    0.734827536907332    0.123334442297964  0.0000
  Ge     Ge        0.351464072392957    0.738541334829421    0.903642247684079  0.0000
  Ge     Ge        0.859644373173677    0.740243825316358    0.908357670421764  0.0000
  Ge     Ge        0.147856971090289    0.240231169312949    0.103864089110306  0.0000
  Ge     Ge        0.327815180381473    0.384261640448994    0.327346590412879  0.0000
  Ge     Ge        0.736104935187973    0.389107668048143    0.690478406623588  0.0000
  Ge     Ge        0.736245077507179    0.590525078787231    0.681808535203014  0.0000
  Ge     Ge        0.334253862336339    0.588173095097419    0.321274526730306  0.0000
  Ge     Ge        0.827409063295976    0.880894751151859    0.344853752274728  0.0000
  Ge     Ge        0.241252442440472    0.891759918478031    0.688179688159798  0.0000
  Ge     Ge        0.237061205000494    0.092638601835343    0.672365444779693  0.0000
  Ge     Ge        0.825033501708547    0.084742806308484    0.327458049939330  0.0000
  Ge     Ge        0.416767181186146    0.392237164995349    0.682532958633671  0.0000
  Ge     Ge        0.644883086410167    0.383750024949095    0.325912521002986  0.0000
  Ge     Ge        0.414963858772320    0.596159065156254    0.674196438624523  0.0000
  Ge     Ge        0.925025679672810    0.891582534103690    0.700703945702956  0.0000
  Ge     Ge        0.140521513594924    0.878807774203983    0.325103830861758  0.0000
  Ge     Ge        0.139123564994810    0.081349598077836    0.309204035463834  0.0000
  Ge     Ge        0.920755086794688    0.094102868071288    0.683613010894092  0.0000
  Si     Si        0.156577357184784    0.729476921579409    0.109507204601951  0.0000
  Si     Si        0.850292340390407    0.237718988587319    0.898948002703933  0.0000
  Si     Si        0.648242372051798    0.581204870596790    0.325740492853255  0.0000
  O1     O1        0.481433780466737    0.233538303457211    0.051531931298676  0.0000
  O1     O1        0.480301326931517    0.736314377403144    0.062533718570675  0.0000
  O3     O3        0.993049959110092    0.725587528059833    0.065528507960175  0.0000
  O3     O3        0.970643838543645    0.241968358360116    0.049478520542296  0.0000
  O1     O1        0.353516584949725    0.163029485086691    0.771269301900421  0.0000
  O1     O1        0.698424949903222    0.140683891164868    0.209212941237041  0.0000
  O1     O1        0.700322493702870    0.820200944030628    0.238113034010334  0.0000
  O1     O1        0.359416719740270    0.826283722404811    0.798223572266870  0.0000
  O1     O1        0.853206739569293    0.661076144119831    0.779338986246210  0.0000
  O3     O3        0.216756924408373    0.642947210032016    0.188144172424801  0.0000
  O1     O1        0.198948473274315    0.324844970695918    0.219620744353664  0.0000
  O3     O3        0.852218820179685    0.319657527566345    0.797669161783081  0.0000
  O1     O1        0.352473238787146    0.339247911003434    0.806889737103067  0.0000
  O1     O1        0.714125672928751    0.317531127362160    0.220282597120451  0.0000
  O3     O3        0.708127544729361    0.642624149140021    0.222972579834072  0.0000
  O1     O1        0.344340550183087    0.651443110122701    0.792434483216688  0.0000
  O1     O1        0.866170834754463    0.836365133462260    0.828135494067995  0.0000
  O3     O3        0.207254159070208    0.807697602898221    0.221817241002301  0.0000
  O1     O1        0.199718138637301    0.147206214036971    0.197058132443079  0.0000
  O3     O3        0.857302237030757    0.154184019709752    0.804114900015668  0.0000
  O1     O1        0.202136231230311    0.243695840287200    0.946524478709174  0.0000
  O3     O3        0.709699312406987    0.234836890111324    0.947247982303686  0.0000
  O1     O1        0.714159259853585    0.737653074407602    0.968505461227299  0.0000
  O3     O3        0.200403761655680    0.742033850522093    0.957789916476980  0.0000
  O1     O1        0.470654768319917    0.377941441109259    0.262025582712894  0.0000
  O1     O1        0.590914333069698    0.394171272606396    0.749771310999431  0.0000
  O1     O1        0.589492291297576    0.598551044927058    0.739416184569809  0.0000
  O3     O3        0.484461802817138    0.579794677406698    0.268676748858941  0.0000
  O1     O1        0.965753672928857    0.877581437832652    0.271427993370378  0.0000
  O1     O1        0.099310284384991    0.896007174143603    0.754554531782026  0.0000
  O1     O1        0.095192554387900    0.093517329892704    0.739960410327412  0.0000
  O1     O1        0.964145043841387    0.081409435524781    0.256635202649529  0.0000
  O1     O1        0.370829487644887    0.347840598248158    0.507714386940102  0.0000
  O1     O1        0.694223059429936    0.354359243154558    0.509290947768832  0.0000
  O3     O3        0.691107552035887    0.615259026163703    0.494357302676268  0.0000
  O1     O1        0.364402640920894    0.633822787406722    0.494148536285675  0.0000
  O1     O1        0.873790705628688    0.846586804861160    0.526035464222726  0.0000
  O1     O1        0.194329515764505    0.852505453443492    0.509247865089175  0.0000
  O1     O1        0.189502280629111    0.119679080632087    0.488294649073557  0.0000
  O1     O1        0.868127019815824    0.129216272431301    0.503338471880095  0.0000
  O1     O1        0.274885263822719    0.487399424079353    0.325605924466658  0.0000
  O1     O1        0.801129488241147    0.489792206820463    0.703765491427877  0.0000
  O1     O1        0.771927177019588    0.983434344837678    0.343958071942967  0.0000
  O1     O1        0.303837827899586    0.992018104935553    0.686797899155508  0.0000
  O1     O1        0.358252360981530    0.494140516558867    0.666623145456433  0.0000
  O3     O3        0.702172588034513    0.486385366581168    0.317492120623482  0.0000
  O1     O1        0.863116773570444    0.992951141695649    0.691352069341244  0.0000
  O1     O1        0.195365850997955    0.979374114427407    0.301729136811739  0.0000
