data_c00224.vasp
_audit_creation_method             Generated by GULP
_audit_author_name                 Salvador R. G. Balestra
_symmetry_space_group_name_H-M     'P 1             '
_symmetry_Int_Tables_number        1

loop_
_symmetry_equiv_pos_site_id
_symmetry_equiv_pos_as_xyz
_cell_length_a                       10.2097
_cell_length_b                       15.8478
_cell_length_c                        9.3037
_cell_angle_alpha                   89.9229
_cell_angle_beta                   105.3321
_cell_angle_gamma                   89.3931

loop_
_atom_site_label
_atom_site_type_symbol
_atom_site_fract_x
_atom_site_fract_y
_atom_site_fract_z
_atom_site_charge
  Ge     Ge        0.351599999999962    0.244500000000016    0.893900000000031  0.0000
  Ge     Ge        0.658049120285794    0.256832054418395    0.098673638769259  0.0000
  Ge     Ge        0.651042604702552    0.754636260013858    0.096418203199452  0.0000
  Ge     Ge        0.854217050552177    0.746698802934873    0.885112661241523  0.0000
  Ge     Ge        0.159480365137389    0.757848068217903    0.092441264005937  0.0000
  Ge     Ge        0.865800837160863    0.251569676815574    0.889503205635458  0.0000
  Ge     Ge        0.273211371810509    0.403781491469849    0.311365257535391  0.0000
  Ge     Ge        0.682155134267000    0.394953680656026    0.664553066873590  0.0000
  Ge     Ge        0.682320304810281    0.599230942218922    0.672433322553557  0.0000
  Ge     Ge        0.270882326104050    0.604890217373682    0.318093765115724  0.0000
  Ge     Ge        0.773152215402540    0.907387304146908    0.308376468328539  0.0000
  Ge     Ge        0.181074854236207    0.895202528591216    0.664150226061416  0.0000
  Ge     Ge        0.182386688330496    0.098515880828569    0.673775228949567  0.0000
  Ge     Ge        0.775542566490432    0.108406579500076    0.327511166088821  0.0000
  Ge     Ge        0.367171187874548    0.397972353048721    0.677431944668317  0.0000
  Ge     Ge        0.590350944483521    0.404765194035180    0.309300010648587  0.0000
  Ge     Ge        0.588698732234556    0.607232567601371    0.317666814478726  0.0000
  Ge     Ge        0.367699533022105    0.600315298201000    0.683883288895510  0.0000
  Ge     Ge        0.867378218304578    0.900329254116185    0.672187183358728  0.0000
  Ge     Ge        0.090655004198490    0.905641578562775    0.306966982117996  0.0000
  Ge     Ge        0.092998513166173    0.109576918280804    0.319901164256134  0.0000
  Si     Si        0.356881373688308    0.755094571665553    0.884503381003667  0.0000
  Si     Si        0.160430758008071    0.252701392126512    0.104514364870711  0.0000
  Si     Si        0.871208891258322    0.097877710877890    0.681350400637259  0.0000
  O1     O1        0.526043747657404    0.242732219477719    0.944689695095804  0.0000
  O3     O3        0.520620655811560    0.756084096350688    0.934655304025723  0.0000
  O1     O1        0.028642040800112    0.747666580243492    0.936811836847247  0.0000
  O3     O3        0.041588251597629    0.256650061808053    0.952100304205202  0.0000
  O1     O1        0.301914110576656    0.152580111692844    0.801022599353967  0.0000
  O1     O1        0.659909268719649    0.179817809629035    0.230356783882077  0.0000
  O1     O1        0.651420654224604    0.842982857721474    0.203056299809791  0.0000
  O3     O3        0.308271816856339    0.834139863715626    0.775887849460645  0.0000
  O1     O1        0.808362120848362    0.655422223097836    0.787936715294951  0.0000
  O1     O1        0.157859456191242    0.675963928294153    0.213667251104717  0.0000
  O3     O3        0.156411120727611    0.334241617563972    0.206661782921277  0.0000
  O1     O1        0.811688388039156    0.335710084613744    0.773960777289328  0.0000
  O1     O1        0.297773018905982    0.330322685302677    0.779731830772462  0.0000
  O1     O1        0.651561871120651    0.353002898521882    0.179846221550481  0.0000
  O1     O1        0.654807602398069    0.665637041448377    0.200861784140816  0.0000
  O3     O3        0.306087657773157    0.669165401476758    0.795146307654996  0.0000
  O1     O1        0.796581435521617    0.834158106160044    0.774245070018238  0.0000
  O1     O1        0.156413970253227    0.851226356706795    0.183617479774835  0.0000
  O3     O3        0.154959369022488    0.168588505969341    0.197811507144324  0.0000
  O3     O3        0.817924271177314    0.158840903834302    0.790975568973342  0.0000
  O3     O3        0.301230645176056    0.252079314367853    0.056979939358912  0.0000
  O1     O1        0.805697370084629    0.252283008895211    0.043325252208622  0.0000
  O1     O1        0.799770476991987    0.752224272167647    0.042826205828828  0.0000
  O3     O3        0.308150634966730    0.758593157422451    0.034475544268624  0.0000
  O1     O1        0.415910258609708    0.408641722284868    0.248240307517360  0.0000
  O1     O1        0.542214729897530    0.392203595650337    0.734652886566366  0.0000
  O1     O1        0.541633515398111    0.596914671489987    0.740832046059220  0.0000
  O1     O1        0.414888011944414    0.607022520826379    0.255544288945270  0.0000
  O1     O1        0.916249994468782    0.907341447427336    0.243914893011451  0.0000
  O1     O1        0.041591466751887    0.893113132745066    0.733737216148595  0.0000
  O3     O3        0.034472229850002    0.094156941347440    0.731068487883560  0.0000
  O1     O1        0.919183573621922    0.111076932339013    0.264151341740620  0.0000
  O1     O1        0.318277517084550    0.370017236341754    0.492938006375107  0.0000
  O1     O1        0.638389208031271    0.359231503181050    0.483565855674967  0.0000
  O1     O1        0.636654702558180    0.644106898948867    0.497586180698240  0.0000
  O1     O1        0.313935550022130    0.633737654412865    0.502418088307817  0.0000
  O1     O1        0.820408033498478    0.871167914932411    0.488962543687542  0.0000
  O1     O1        0.138671344361630    0.861190583903335    0.482580585243507  0.0000
  O1     O1        0.149781865067900    0.144730283423293    0.500282966028443  0.0000
  O3     O3        0.822847698654417    0.134579271020165    0.514342347934780  0.0000
  O1     O1        0.206258772836644    0.504380181069017    0.302893418916179  0.0000
  O1     O1        0.736115239714282    0.497058734389953    0.662294215113230  0.0000
  O1     O1        0.710609049873890    0.008599028854747    0.305158850948223  0.0000
  O1     O1        0.237731117304786    0.996818251289001    0.664323301279543  0.0000
  O1     O1        0.312105886341004    0.499335216338416    0.696624384272035  0.0000
  O1     O1        0.649897561513091    0.505806989931894    0.321746963765698  0.0000
  O3     O3        0.814449148302130    0.004008737732093    0.685961155607865  0.0000
  O1     O1        0.148658807928813    0.007300246890651    0.317026133397459  0.0000
