data_c00222.vasp
_audit_creation_method             Generated by GULP
_audit_author_name                 Salvador R. G. Balestra
_symmetry_space_group_name_H-M     'P 1             '
_symmetry_Int_Tables_number        1

loop_
_symmetry_equiv_pos_site_id
_symmetry_equiv_pos_as_xyz
_cell_length_a                       10.1910
_cell_length_b                       15.8251
_cell_length_c                        9.3330
_cell_angle_alpha                   90.4454
_cell_angle_beta                   105.5323
_cell_angle_gamma                   89.6285

loop_
_atom_site_label
_atom_site_type_symbol
_atom_site_fract_x
_atom_site_fract_y
_atom_site_fract_z
_atom_site_charge
  Ge     Ge        0.351599999999962    0.244500000000016    0.893900000000031  0.0000
  Ge     Ge        0.657233015461074    0.235520172493854    0.104948355895003  0.0000
  Ge     Ge        0.638617829978955    0.748607596731316    0.096599877484576  0.0000
  Ge     Ge        0.847500438807100    0.749286315871049    0.893569598812950  0.0000
  Ge     Ge        0.148993757555016    0.731818437914504    0.106543021199635  0.0000
  Ge     Ge        0.147712278479273    0.243537987704706    0.103447098376847  0.0000
  Ge     Ge        0.327634978624958    0.384979996981030    0.331294864888779  0.0000
  Ge     Ge        0.733505463478644    0.395194318705028    0.687024111974309  0.0000
  Ge     Ge        0.731622767491668    0.596732404772888    0.672334112507858  0.0000
  Ge     Ge        0.321339371173478    0.589350136210185    0.324401310475179  0.0000
  Ge     Ge        0.823723707928717    0.885888939863704    0.331133828358368  0.0000
  Ge     Ge        0.236372636399872    0.090097629424270    0.679492225524109  0.0000
  Ge     Ge        0.828730545911903    0.090979722026991    0.324258315759057  0.0000
  Ge     Ge        0.415231813478022    0.396489153061746    0.685630294426243  0.0000
  Ge     Ge        0.643425724611462    0.387955349038873    0.322739249892353  0.0000
  Ge     Ge        0.635866257825035    0.590948130237066    0.308877885311251  0.0000
  Ge     Ge        0.413367873600685    0.599921234224437    0.678556607680655  0.0000
  Ge     Ge        0.913982970133004    0.898020931119995    0.682330229388985  0.0000
  Ge     Ge        0.142786349640797    0.884783210873236    0.325897918615460  0.0000
  Ge     Ge        0.144719144319688    0.086666829343888    0.314658406160121  0.0000
  Ge     Ge        0.918534730480926    0.100597067769985    0.678447567270253  0.0000
  Si     Si        0.337749624511094    0.744508148979911    0.891553143257129  0.0000
  Si     Si        0.849453418844289    0.243856080632771    0.894926535449312  0.0000
  Si     Si        0.227334903660147    0.893999695112139    0.681117054185336  0.0000
  O1     O1        0.482600544220073    0.238018614596812    0.051512473413838  0.0000
  O3     O3        0.461651138901522    0.753597014254250    0.038303669274937  0.0000
  O1     O1        0.974661866541253    0.735853241419852    0.053372790751312  0.0000
  O3     O3        0.970502766478500    0.245454047322364    0.045542463233647  0.0000
  O1     O1        0.355586383572403    0.157979961399028    0.781560911142836  0.0000
  O1     O1        0.701472977458218    0.144169032955854    0.201966455825834  0.0000
  O1     O1        0.692614360606997    0.831767782424317    0.215878891009639  0.0000
  O2     O2        0.328618274559253    0.826751222280051    0.785983928441016  0.0000
  O1     O1        0.847629091683093    0.667452776345537    0.771857004328949  0.0000
  O1     O1        0.191143518077030    0.639637837580542    0.200959717190510  0.0000
  O1     O1        0.197483336569695    0.328342758158542    0.219968308034449  0.0000
  O3     O3        0.851367713807711    0.327008176944606    0.796717864534620  0.0000
  O1     O1        0.351450850673486    0.338085836025345    0.803551582151448  0.0000
  O1     O1        0.714270822739604    0.320581567110592    0.220252295789586  0.0000
  O1     O1        0.691501652943326    0.656568770828108    0.193114763337260  0.0000
  O3     O3        0.351802366927378    0.660872730042625    0.799930780405703  0.0000
  O1     O1        0.863587167700814    0.844855458997913    0.815466831977392  0.0000
  O1     O1        0.210937018516761    0.814392836811105    0.226456106592307  0.0000
  O1     O1        0.204521569318190    0.153275382844570    0.203781022485619  0.0000
  O3     O3        0.853054363676846    0.161153459426649    0.796676573537961  0.0000
  O1     O1        0.202562168838692    0.245948655545732    0.947321826192892  0.0000
  O3     O3        0.709224029208029    0.241493579149328    0.943696431399803  0.0000
  O1     O1        0.695953080044090    0.752095933137020    0.941567053217455  0.0000
  O3     O3        0.200643899874649    0.737805706766355    0.944711988613604  0.0000
  O1     O1        0.467897585979917    0.383044757133865    0.262421925867149  0.0000
  O1     O1        0.590018330672767    0.400850861370565    0.748781448276201  0.0000
  O1     O1        0.587883948838207    0.598635214709311    0.736074477763816  0.0000
  O1     O1        0.461037958105804    0.590715522217350    0.254898901685542  0.0000
  O1     O1        0.967571064947940    0.879590496796330    0.268502917106083  0.0000
  O3     O3        0.090233682720596    0.905549967181919    0.731927883572849  0.0000
  O1     O1        0.092800831514938    0.099629220445259    0.741648194855826  0.0000
  O1     O1        0.969942511805583    0.088664300851430    0.257694059139100  0.0000
  O1     O1        0.371942097428611    0.350172619680144    0.512055414242571  0.0000
  O1     O1        0.691120610276332    0.359481096608576    0.506482151298211  0.0000
  O1     O1        0.687592044232124    0.626415588683261    0.489409102977370  0.0000
  O1     O1        0.360856274110426    0.635421369346536    0.498794528809411  0.0000
  O1     O1        0.858756084567018    0.849919341382133    0.511660964803261  0.0000
  O3     O3        0.191270879699104    0.859768586746514    0.513140460350002  0.0000
  O1     O1        0.196793418402717    0.119410345866656    0.496542314630204  0.0000
  O1     O1        0.870210975220512    0.136835632898570    0.498817999505419  0.0000
  O1     O1        0.274346376726787    0.487437510343362    0.341719053607833  0.0000
  O1     O1        0.797595763371261    0.495726890574999    0.690026664366000  0.0000
  O1     O1        0.776906881264005    0.989662524918064    0.339800907298546  0.0000
  O3     O3        0.295768113727473    0.986077093644237    0.691758511568584  0.0000
  O1     O1        0.355236423083250    0.498405765081714    0.682166351732820  0.0000
  O1     O1        0.694868983401749    0.489454179513653    0.303040445711597  0.0000
  O1     O1        0.856084872434545    0.000090268456655    0.678305171110770  0.0000
  O1     O1        0.197639983853732    0.984327718955597    0.301291977959573  0.0000
