data_c00204.vasp
_audit_creation_method             Generated by GULP
_audit_author_name                 Salvador R. G. Balestra
_symmetry_space_group_name_H-M     'P 1             '
_symmetry_Int_Tables_number        1

loop_
_symmetry_equiv_pos_site_id
_symmetry_equiv_pos_as_xyz
_cell_length_a                       10.2084
_cell_length_b                       15.8394
_cell_length_c                        9.2915
_cell_angle_alpha                   89.7077
_cell_angle_beta                   105.8536
_cell_angle_gamma                   89.3939

loop_
_atom_site_label
_atom_site_type_symbol
_atom_site_fract_x
_atom_site_fract_y
_atom_site_fract_z
_atom_site_charge
  Ge     Ge        0.351599999999962    0.244500000000016    0.893900000000031  0.0000
  Ge     Ge        0.657099455898338    0.260693938209037    0.102250096352405  0.0000
  Ge     Ge        0.671713197662988    0.756300507348074    0.121444246318035  0.0000
  Ge     Ge        0.364520623943678    0.758219791296548    0.905424299431664  0.0000
  Ge     Ge        0.874548124344674    0.742914520672823    0.912512081988976  0.0000
  Ge     Ge        0.157161000292731    0.261880571542177    0.113282512421848  0.0000
  Ge     Ge        0.274373242446986    0.419150977193752    0.313568898546266  0.0000
  Ge     Ge        0.684071894445684    0.392328740291347    0.674285730112218  0.0000
  Ge     Ge        0.696938612299394    0.595696652539912    0.704503350629512  0.0000
  Ge     Ge        0.293625143689128    0.619800341680602    0.338289045524985  0.0000
  Ge     Ge        0.779579945521075    0.913243715832683    0.325338626877752  0.0000
  Ge     Ge        0.191730711874347    0.900158012925597    0.675122571199556  0.0000
  Ge     Ge        0.780686441911568    0.114440998223597    0.340850606133551  0.0000
  Ge     Ge        0.366867900876426    0.398886659232401    0.678218647525359  0.0000
  Ge     Ge        0.593531433120226    0.408947611022466    0.316674841970291  0.0000
  Ge     Ge        0.611712439668900    0.610981242853787    0.346500805647656  0.0000
  Ge     Ge        0.379276105358298    0.600915205154799    0.703536182658177  0.0000
  Ge     Ge        0.879069460565310    0.896441315129200    0.689625972282603  0.0000
  Ge     Ge        0.096328880460027    0.912054662038667    0.316228228050160  0.0000
  Ge     Ge        0.098827583451161    0.113455811683150    0.338966315266540  0.0000
  Ge     Ge        0.876314540865499    0.099107408392110    0.702727109748194  0.0000
  Si     Si        0.170762613438693    0.766829109833568    0.114607328428057  0.0000
  Si     Si        0.859812740947420    0.252468368104630    0.901143799489577  0.0000
  Si     Si        0.183930622775745    0.099132016989792    0.689365792989407  0.0000
  O1     O1        0.526850128351471    0.242893672569786    0.946719297614514  0.0000
  O1     O1        0.539494818892286    0.751567643786337    0.963680947123525  0.0000
  O3     O3        0.051451039687776    0.745521949925509    0.967403289097886  0.0000
  O3     O3        0.023763719678417    0.254869856156901    0.954059284597203  0.0000
  O3     O3        0.300257229750530    0.150961807032253    0.802707856322587  0.0000
  O1     O1        0.663840591331542    0.183789579448450    0.234995018612494  0.0000
  O1     O1        0.661556989531826    0.848390866527385    0.215664487086662  0.0000
  O1     O1        0.323908806560700    0.842464245964374    0.784698845245598  0.0000
  O1     O1        0.825501617852942    0.648633580325815    0.826341650165658  0.0000
  O3     O3        0.180135262141226    0.695361943402506    0.241003339827111  0.0000
  O1     O1        0.153592318682141    0.357141399173660    0.199785263583057  0.0000
  O3     O3        0.808377295605888    0.326201017824964    0.780436146315364  0.0000
  O1     O1        0.296283534909834    0.329464546873659    0.776102091608078  0.0000
  O1     O1        0.648584893414777    0.356564288431800    0.183553299726337  0.0000
  O1     O1        0.685557188695542    0.671633697702460    0.239995873985916  0.0000
  O1     O1        0.311159986024821    0.666056985364779    0.811632500620918  0.0000
  O1     O1        0.814148687435843    0.825265919366569    0.789535536395005  0.0000
  O3     O3        0.149295194489152    0.856972778089093    0.182048642357080  0.0000
  O1     O1        0.169012124503936    0.181695497065413    0.240233413596136  0.0000
  O3     O3        0.818275299581660    0.162006632201514    0.823911698292565  0.0000
  O1     O1        0.302865535937065    0.254726034138512    0.054428463618819  0.0000
  O3     O3        0.806469420165987    0.262085493180652    0.046498132656577  0.0000
  O1     O1        0.820869860811148    0.755207971894402    0.069214920988633  0.0000
  O3     O3        0.309898549547050    0.768637600737184    0.064554735533537  0.0000
  O1     O1        0.419575106150612    0.418119597869308    0.253805001591193  0.0000
  O1     O1        0.542210165744743    0.391793330729420    0.739553478875753  0.0000
  O1     O1        0.554206094074313    0.595772956269012    0.768793575434420  0.0000
  O1     O1        0.437115412331547    0.617399141599617    0.276179877830598  0.0000
  O1     O1        0.922343402317384    0.918737601805753    0.261362385751959  0.0000
  O1     O1        0.054399862033479    0.889663149427236    0.745688822316054  0.0000
  O3     O3        0.052679343111277    0.093240686551877    0.752855754309830  0.0000
  O1     O1        0.924267865858275    0.117416178740564    0.278164078062824  0.0000
  O1     O1        0.317020482706745    0.376918990695063    0.491374743131809  0.0000
  O1     O1        0.640809947352793    0.361075496393690    0.490574801780297  0.0000
  O1     O1        0.657304290513820    0.642339229844730    0.529974637062356  0.0000
  O1     O1        0.339236886216147    0.642268565258609    0.524872841155956  0.0000
  O1     O1        0.828688668992891    0.872200180748795    0.503501822228096  0.0000
  O1     O1        0.152288976008566    0.867659812811280    0.491618000664037  0.0000
  O3     O3        0.141936536725742    0.142499028115294    0.526183040621056  0.0000
  O1     O1        0.818617785599241    0.140900852753138    0.526473107815915  0.0000
  O1     O1        0.219276097787992    0.521736313666798    0.314831487781132  0.0000
  O1     O1        0.746411497146379    0.493006753388668    0.687808653123436  0.0000
  O1     O1        0.716660014489483    0.013833392761914    0.326426026419140  0.0000
  O3     O3        0.237582214281627    0.004973315055171    0.672514201220793  0.0000
  O1     O1        0.316727175352491    0.500908466646008    0.702409144197233  0.0000
  O1     O1        0.662362388193200    0.507927257923187    0.338766800370889  0.0000
  O1     O1        0.823089781044612    0.997503217029771    0.711545482052874  0.0000
  O1     O1        0.156157289188458    0.013284007430683    0.319464461193002  0.0000
