data_c00252.vasp
_audit_creation_method             Generated by GULP
_audit_author_name                 Salvador R. G. Balestra
_symmetry_space_group_name_H-M     'P 1             '
_symmetry_Int_Tables_number        1

loop_
_symmetry_equiv_pos_site_id
_symmetry_equiv_pos_as_xyz
_cell_length_a                       10.1568
_cell_length_b                       15.8566
_cell_length_c                        9.3032
_cell_angle_alpha                   90.3353
_cell_angle_beta                   105.6858
_cell_angle_gamma                   90.2676

loop_
_atom_site_label
_atom_site_type_symbol
_atom_site_fract_x
_atom_site_fract_y
_atom_site_fract_z
_atom_site_charge
  Ge     Ge        0.351599999999962    0.244500000000016    0.893900000000031  0.0000
  Ge     Ge        0.658838689013491    0.243303719050604    0.108981370288444  0.0000
  Ge     Ge        0.649471816017126    0.737199830925892    0.092125609915612  0.0000
  Ge     Ge        0.151253111737038    0.741644059724567    0.092958697184126  0.0000
  Ge     Ge        0.862397415597491    0.252759848891703    0.900028937648637  0.0000
  Ge     Ge        0.278110348566874    0.385583681057917    0.324311388708136  0.0000
  Ge     Ge        0.683920889942727    0.400234522264564    0.690075825387567  0.0000
  Ge     Ge        0.678745613271061    0.602896856216820    0.665062877058094  0.0000
  Ge     Ge        0.266471108954854    0.586807856298083    0.304847889617812  0.0000
  Ge     Ge        0.774402352165070    0.885964401900278    0.322177990991913  0.0000
  Ge     Ge        0.183242816739165    0.895636257124068    0.677725835526577  0.0000
  Ge     Ge        0.183372407150631    0.098183782061770    0.666720379726429  0.0000
  Ge     Ge        0.768763851851207    0.087290134081728    0.313686366258805  0.0000
  Ge     Ge        0.364335762300124    0.401116169699848    0.690021414634652  0.0000
  Ge     Ge        0.598502527197554    0.388741257862914    0.333633590206385  0.0000
  Ge     Ge        0.588407920323534    0.591200512123009    0.309507043812881  0.0000
  Ge     Ge        0.359508188167379    0.602390165009099    0.669508079595215  0.0000
  Ge     Ge        0.865645856223218    0.896652561741270    0.685777872193185  0.0000
  Ge     Ge        0.094164543805542    0.888033290889515    0.319724091395648  0.0000
  Ge     Ge        0.087232498942278    0.091058378787137    0.308625973049655  0.0000
  Ge     Ge        0.866317744382027    0.098350756958849    0.677511852753700  0.0000
  Si     Si        0.350121209791727    0.751333355867351    0.885073891572993  0.0000
  Si     Si        0.849989949377731    0.744610073505279    0.886083406644701  0.0000
  Si     Si        0.160030581632654    0.236582923487590    0.105409452618022  0.0000
  O1     O1        0.527624126668806    0.248708577928844    0.950692980216192  0.0000
  O3     O3        0.514447139435732    0.747684485100522    0.935452878588068  0.0000
  O3     O3        0.014631465656977    0.746005122228723    0.937052667983365  0.0000
  O3     O3        0.040221025825733    0.251616837919803    0.955290189109414  0.0000
  O1     O1        0.309759438775710    0.159855959811531    0.776126472482758  0.0000
  O1     O1        0.648993377119733    0.152275889609377    0.205763612111485  0.0000
  O1     O1        0.655066989301073    0.817508963410146    0.217531894817654  0.0000
  O3     O3        0.307021732591390    0.839005079867848    0.802108571223456  0.0000
  O3     O3        0.804156785522893    0.665561555316556    0.776583168436437  0.0000
  O1     O1        0.147873405857558    0.650965569222439    0.191747378837328  0.0000
  O3     O3        0.163669304013633    0.311235328133328    0.224705096170063  0.0000
  O1     O1        0.811792564354988    0.345856014596564    0.810442186163335  0.0000
  O1     O1        0.297096783578540    0.336170568655965    0.799014096178979  0.0000
  O1     O1        0.671816038812587    0.328792125236216    0.225113132576385  0.0000
  O1     O1        0.650107256841453    0.643242057500474    0.180876815781513  0.0000
  O3     O3        0.292870347571238    0.674243455174894    0.770839979411223  0.0000
  O3     O3        0.800313936991679    0.830974823200347    0.797800142135416  0.0000
  O1     O1        0.164455259794105    0.827351534336817    0.208011899606124  0.0000
  O3     O3        0.144920535563098    0.147636104347121    0.179760942348578  0.0000
  O1     O1        0.803274570412909    0.169177266387458    0.780591584894692  0.0000
  O3     O3        0.300130290791460    0.236138892573581    0.055660573536397  0.0000
  O1     O1        0.809200067952824    0.242580964703215    0.057378679399972  0.0000
  O3     O3        0.797137127444414    0.738857068762105    0.032517453109587  0.0000
  O3     O3        0.298540772426696    0.742268254805198    0.032204023321421  0.0000
  O1     O1        0.423206457230100    0.386269223394832    0.263643954025310  0.0000
  O1     O1        0.540180678149083    0.402742640481176    0.753739963980325  0.0000
  O1     O1        0.534996859839013    0.602670084304600    0.728432868742939  0.0000
  O1     O1        0.413417765567377    0.586902680877258    0.247017366641284  0.0000
  O1     O1        0.918520415148204    0.883958433953340    0.258935995100592  0.0000
  O1     O1        0.041037514718857    0.901547354616872    0.742841297289232  0.0000
  O1     O1        0.042241390444662    0.100617839477829    0.734631083616223  0.0000
  O1     O1        0.912683205864554    0.084357968464336    0.249551619065703  0.0000
  O1     O1        0.320783899312119    0.361981945515383    0.510200571664747  0.0000
  O1     O1        0.642185843006679    0.354597808935807    0.515047407860370  0.0000
  O1     O1        0.636864922364492    0.637730987160657    0.484000093857828  0.0000
  O1     O1        0.306778576278022    0.626663022960131    0.484088630899288  0.0000
  O1     O1        0.818058329670872    0.857796679551112    0.506729522278802  0.0000
  O1     O1        0.143268777917096    0.852900988452800    0.501428960294541  0.0000
  O1     O1        0.139290718188506    0.133606506520654    0.484892365226483  0.0000
  O1     O1        0.816162517600524    0.125923327095762    0.493038574261226  0.0000
  O1     O1        0.207612480148784    0.484947628166425    0.301982762890194  0.0000
  O1     O1        0.738454176615605    0.501635932124158    0.673845928868355  0.0000
  O1     O1        0.708192204004689    0.986047457707013    0.310827538742138  0.0000
  O1     O1        0.241363686425172    0.996653724853165    0.667483525447008  0.0000
  O1     O1        0.303801398129561    0.501809209140922    0.692356473211354  0.0000
  O1     O1        0.652906287968771    0.491100230817606    0.329664061809934  0.0000
  O1     O1        0.807555290410925    0.997578874235619    0.694154035284530  0.0000
  O1     O1        0.149352352070018    0.990137110213836    0.314713069142687  0.0000
