data_c00208.vasp
_audit_creation_method             Generated by GULP
_audit_author_name                 Salvador R. G. Balestra
_symmetry_space_group_name_H-M     'P 1             '
_symmetry_Int_Tables_number        1

loop_
_symmetry_equiv_pos_site_id
_symmetry_equiv_pos_as_xyz
_cell_length_a                       10.2234
_cell_length_b                       15.8398
_cell_length_c                        9.2706
_cell_angle_alpha                   90.3619
_cell_angle_beta                   105.4145
_cell_angle_gamma                   90.4241

loop_
_atom_site_label
_atom_site_type_symbol
_atom_site_fract_x
_atom_site_fract_y
_atom_site_fract_z
_atom_site_charge
  Ge     Ge        0.351599999999962    0.244500000000016    0.893900000000031  0.0000
  Ge     Ge        0.659201539137335    0.235652478997064    0.106408137563915  0.0000
  Ge     Ge        0.670794172008206    0.731343589180988    0.103836092985423  0.0000
  Ge     Ge        0.368481592947126    0.755275249761549    0.893303862412810  0.0000
  Ge     Ge        0.877527103654544    0.740132801622472    0.897419984686358  0.0000
  Ge     Ge        0.866722585102937    0.250920198756504    0.901163091789289  0.0000
  Ge     Ge        0.281859301092841    0.385847229905213    0.325757937106483  0.0000
  Ge     Ge        0.687867656707731    0.396374114874305    0.691831324655070  0.0000
  Ge     Ge        0.691851986531646    0.600573845180859    0.666374740369442  0.0000
  Ge     Ge        0.282595523585745    0.587199909820451    0.306214858846277  0.0000
  Ge     Ge        0.793010537095384    0.880492808603452    0.331385456968033  0.0000
  Ge     Ge        0.201551476244580    0.901338065600456    0.677344120017435  0.0000
  Ge     Ge        0.188451792156956    0.102385283237098    0.654108880361493  0.0000
  Ge     Ge        0.779938002919039    0.082000922768551    0.311613532230516  0.0000
  Ge     Ge        0.370586360285377    0.400672293081088    0.693341892758934  0.0000
  Ge     Ge        0.601048183020455    0.381443681186653    0.335967537953949  0.0000
  Ge     Ge        0.599766218925467    0.583302224352523    0.310374549622347  0.0000
  Ge     Ge        0.376179498834429    0.602829670999049    0.672960201718301  0.0000
  Ge     Ge        0.887690681969821    0.898402447824289    0.693470884129733  0.0000
  Ge     Ge        0.104675348976659    0.888778669885039    0.315929094694416  0.0000
  Ge     Ge        0.874887443737784    0.100482268686129    0.671396880776492  0.0000
  Si     Si        0.175755983826992    0.743135746557648    0.104402376714503  0.0000
  Si     Si        0.160834831347005    0.234504713711927    0.107755275464774  0.0000
  Si     Si        0.089188314077854    0.087083264294102    0.301826526515091  0.0000
  O1     O1        0.526348669391910    0.242354552182406    0.951962326545769  0.0000
  O1     O1        0.542299618827237    0.750631354007105    0.947817478735863  0.0000
  O3     O3        0.054087589164031    0.740430351751790    0.954108254775697  0.0000
  O3     O3        0.043016322446037    0.250513556662870    0.957906607355759  0.0000
  O1     O1        0.308725875461500    0.169985698667167    0.754759721882300  0.0000
  O1     O1        0.657911194517372    0.140644013979440    0.195446840845804  0.0000
  O1     O1        0.675611259319525    0.809017800486753    0.235396569056362  0.0000
  O1     O1        0.327594748216222    0.847566788745426    0.798800305614135  0.0000
  O1     O1        0.823975412491829    0.660024425965955    0.770321268429218  0.0000
  O3     O3        0.170900972338911    0.658798966051855    0.199553609560738  0.0000
  O3     O3        0.169016158822368    0.311361167776508    0.223512438022447  0.0000
  O1     O1        0.816476453132425    0.344471903494492    0.813154345260003  0.0000
  O1     O1        0.304977967976817    0.340347056483500    0.810884487664203  0.0000
  O1     O1        0.670811614535278    0.317882852972874    0.229373760140173  0.0000
  O1     O1        0.658668691089462    0.634229625981459    0.178776960977153  0.0000
  O1     O1        0.307217942126326    0.672693351180500    0.772261069550939  0.0000
  O1     O1        0.828497540291483    0.834953311768840    0.810742994094008  0.0000
  O3     O3        0.173586572094591    0.826615059687623    0.202886432217904  0.0000
  O2     O2        0.137526421731595    0.146143167051743    0.183823145712141  0.0000
  O1     O1        0.810479312261361    0.168873762068284    0.777054285611591  0.0000
  O3     O3        0.297678565190307    0.227646502976378    0.053033248832950  0.0000
  O1     O1        0.808897877786130    0.239532108019826    0.055141629852827  0.0000
  O1     O1        0.820180442064093    0.729802844770601    0.052117983783629  0.0000
  O3     O3        0.315335555756146    0.746762830368425    0.054957838660814  0.0000
  O1     O1        0.427137248835474    0.382033158094439    0.266859581705441  0.0000
  O1     O1        0.545044649878757    0.399395017518310    0.755983962385090  0.0000
  O1     O1        0.551042860462286    0.607539429328700    0.734369693113038  0.0000
  O1     O1        0.425891339313808    0.578533449590834    0.245504737219711  0.0000
  O1     O1        0.931941757031546    0.878949108500011    0.258807692205813  0.0000
  O1     O1        0.062013040475699    0.903157671257843    0.746642936601776  0.0000
  O1     O1        0.049471733929316    0.105598175717164    0.724222440703041  0.0000
  O3     O3        0.927242080956535    0.076925985849017    0.251694131951431  0.0000
  O1     O1        0.320007356657763    0.362412082889983    0.512458323515717  0.0000
  O1     O1        0.643315476593037    0.348535266987833    0.518290407613986  0.0000
  O1     O1        0.647486482211381    0.632398172274896    0.482623056256775  0.0000
  O1     O1        0.328247186924785    0.625698862447762    0.486028328368969  0.0000
  O1     O1        0.843657108408275    0.854825870968726    0.516510216383548  0.0000
  O1     O1        0.161884748497424    0.858718484983932    0.499177532608543  0.0000
  O3     O3        0.137065048851919    0.128925162161354    0.465752828769204  0.0000
  O1     O1        0.818309462570845    0.126964645455190    0.486560759869106  0.0000
  O1     O1        0.215735005214061    0.486494376752099    0.300920638851253  0.0000
  O1     O1        0.741873053225217    0.497326759975615    0.672718145278583  0.0000
  O1     O1        0.725051405735485    0.980052129284085    0.316997568939330  0.0000
  O1     O1        0.255077122337464    0.003328248338536    0.666307111057515  0.0000
  O1     O1        0.318304311017178    0.502884527823920    0.695110924045627  0.0000
  O1     O1        0.661147897084294    0.482545988510727    0.330506678106967  0.0000
  O1     O1        0.824320762443059    0.998250645550408    0.692157086605859  0.0000
  O3     O3        0.151537045253866    0.993987244950877    0.302721556215466  0.0000
