data_c00248.vasp
_audit_creation_method             Generated by GULP
_audit_author_name                 Salvador R. G. Balestra
_symmetry_space_group_name_H-M     'P 1             '
_symmetry_Int_Tables_number        1

loop_
_symmetry_equiv_pos_site_id
_symmetry_equiv_pos_as_xyz
_cell_length_a                       10.1524
_cell_length_b                       15.8418
_cell_length_c                        9.3001
_cell_angle_alpha                   89.5695
_cell_angle_beta                   105.8979
_cell_angle_gamma                   90.0119

loop_
_atom_site_label
_atom_site_type_symbol
_atom_site_fract_x
_atom_site_fract_y
_atom_site_fract_z
_atom_site_charge
  Ge     Ge        0.351599999999962    0.244500000000016    0.893900000000031  0.0000
  Ge     Ge        0.652688752520713    0.270928744186740    0.103650319828960  0.0000
  Ge     Ge        0.585167644256458    0.773680781147135    0.100584151501380  0.0000
  Ge     Ge        0.085054091541368    0.759199934909827    0.101937468902418  0.0000
  Ge     Ge        0.162166397217456    0.258531228755549    0.115130112844020  0.0000
  Ge     Ge        0.856895549667167    0.263325374421141    0.896341940179672  0.0000
  Ge     Ge        0.264803584149532    0.416099370383781    0.320477312533999  0.0000
  Ge     Ge        0.680983352088202    0.408259493269730    0.670517971735408  0.0000
  Ge     Ge        0.670871319365736    0.610246508255315    0.688690708195950  0.0000
  Ge     Ge        0.254599855892381    0.617515354592367    0.334887716784021  0.0000
  Ge     Ge        0.757726205272439    0.919834403533506    0.313361713273729  0.0000
  Ge     Ge        0.162216598890750    0.898465718859081    0.678017586705678  0.0000
  Ge     Ge        0.778194213307594    0.122852366144673    0.336228833979197  0.0000
  Ge     Ge        0.364072610774791    0.401533755933900    0.681198438130223  0.0000
  Ge     Ge        0.580160197727542    0.421902568159278    0.308523683231122  0.0000
  Ge     Ge        0.573882497897855    0.624171257543171    0.328555387854222  0.0000
  Ge     Ge        0.353208459554357    0.604074054895529    0.695443068706152  0.0000
  Ge     Ge        0.842892497596822    0.903525705841028    0.673240198948743  0.0000
  Ge     Ge        0.079637585256769    0.912218639517730    0.316730139881485  0.0000
  Ge     Ge        0.097237146746052    0.113416273454855    0.340713612871250  0.0000
  Ge     Ge        0.864249276793317    0.105764629073919    0.693849210870053  0.0000
  Si     Si        0.284858210205043    0.751118423049922    0.897394532019496  0.0000
  Si     Si        0.781349948710789    0.762129101328737    0.892579720132360  0.0000
  Si     Si        0.177065327286935    0.096618038695685    0.695688690827502  0.0000
  O1     O1        0.527930899592739    0.247343928881593    0.943659509283086  0.0000
  O3     O3        0.408138663645640    0.766865214311232    0.043961018114033  0.0000
  O3     O3        0.907865876399814    0.766757834556547    0.038963294962198  0.0000
  O1     O1        0.033059012791190    0.254576088393270    0.953667575054121  0.0000
  O3     O3        0.295423037271216    0.150260281997488    0.805955408484740  0.0000
  O1     O1        0.661001055962843    0.193213338847096    0.235308486043709  0.0000
  O1     O1        0.629001780332734    0.868177907444544    0.187460414210455  0.0000
  O3     O3        0.280694562436086    0.827245233909390    0.780351935000464  0.0000
  O3     O3        0.789349964999576    0.676637022604734    0.802785838731140  0.0000
  O1     O1        0.123816579624721    0.675906138688331    0.224087479184977  0.0000
  O1     O1        0.148852404418029    0.350692392409874    0.206805061237803  0.0000
  O1     O1        0.810851618663039    0.345700864048803    0.772569268692212  0.0000
  O1     O1        0.295067660613297    0.329902108039670    0.778626850424465  0.0000
  O1     O1        0.635217518250187    0.367485894188607    0.178219317343121  0.0000
  O1     O1        0.642259643786672    0.693262984623855    0.226505888527423  0.0000
  O3     O3        0.296396797359761    0.661562650005722    0.823202001629219  0.0000
  O3     O3        0.770125811796794    0.842133984756634    0.783404168493397  0.0000
  O1     O1        0.141233225454784    0.849367008189096    0.200840511985597  0.0000
  O1     O1        0.174597453456977    0.177297200291610    0.241623208435468  0.0000
  O1     O1        0.803246808823510    0.168817056088332    0.808743535603544  0.0000
  O1     O1        0.310555818210251    0.254272971746125    0.059605898990920  0.0000
  O1     O1        0.803755390251039    0.275319249750187    0.053333923753407  0.0000
  O3     O3        0.642355652789345    0.761975234544165    0.943978673183812  0.0000
  O3     O3        0.145264298482136    0.749400969797005    0.947494191993224  0.0000
  O1     O1        0.405015793113004    0.424984310183051    0.251434287783010  0.0000
  O1     O1        0.541226244276955    0.400447508351502    0.740720344872927  0.0000
  O1     O1        0.528180835997298    0.599152451467850    0.752181294231384  0.0000
  O1     O1        0.396951767591944    0.625236560706645    0.270198731664336  0.0000
  O1     O1        0.903797515618037    0.918091246222497    0.255120592742730  0.0000
  O1     O1        0.017708926220221    0.896166675284875    0.739281463628992  0.0000
  O3     O3        0.041995505645002    0.095740873102456    0.753967220778798  0.0000
  O1     O1        0.922644146539204    0.122777085637496    0.272278691462877  0.0000
  O1     O1        0.319745760693618    0.373156442041520    0.496595501117562  0.0000
  O1     O1        0.636930738437731    0.379288265947811    0.485446214855900  0.0000
  O1     O1        0.620905092530396    0.653635087746521    0.512874232252109  0.0000
  O1     O1        0.295498043982678    0.647274339112011    0.519798089961751  0.0000
  O1     O1        0.790664421438525    0.874738962603413    0.489148647367062  0.0000
  O1     O1        0.121757686645138    0.869738908923270    0.494423112158182  0.0000
  O3     O3        0.141233538795789    0.136779223453001    0.529781546122160  0.0000
  O1     O1        0.823243612591179    0.151950382982258    0.520017643147798  0.0000
  O1     O1        0.199249201701598    0.514528918247999    0.329476473244727  0.0000
  O1     O1        0.737416106174672    0.511525946155184    0.682659359159324  0.0000
  O1     O1        0.710492090436870    0.023044120822434    0.324160452086913  0.0000
  O3     O3        0.227348315024532    0.000272865681513    0.691134901160931  0.0000
  O1     O1        0.300421762087743    0.500746121904235    0.696081322602355  0.0000
  O1     O1        0.635798093221677    0.524876676447982    0.314999359177852  0.0000
  O1     O1        0.795505812677914    0.006881789081431    0.686755159844633  0.0000
  O1     O1        0.146119022881693    0.011384046464099    0.320153114172150  0.0000
