data_c00215.vasp
_audit_creation_method             Generated by GULP
_audit_author_name                 Salvador R. G. Balestra
_symmetry_space_group_name_H-M     'P 1             '
_symmetry_Int_Tables_number        1

loop_
_symmetry_equiv_pos_site_id
_symmetry_equiv_pos_as_xyz
_cell_length_a                       10.1676
_cell_length_b                       15.8415
_cell_length_c                        9.3253
_cell_angle_alpha                   89.7887
_cell_angle_beta                   105.7392
_cell_angle_gamma                   89.7367

loop_
_atom_site_label
_atom_site_type_symbol
_atom_site_fract_x
_atom_site_fract_y
_atom_site_fract_z
_atom_site_charge
  Ge     Ge        0.351599999999962    0.244500000000016    0.893900000000031  0.0000
  Ge     Ge        0.662674900286776    0.244613265247795    0.107429391971549  0.0000
  Ge     Ge        0.651457673015665    0.751093227381180    0.111181961867505  0.0000
  Ge     Ge        0.345043317861605    0.737094777090991    0.898532106583455  0.0000
  Ge     Ge        0.855152586807194    0.743102009743648    0.900646157287043  0.0000
  Ge     Ge        0.324500044087067    0.395262893859110    0.309436143960684  0.0000
  Ge     Ge        0.727014858631026    0.384808915455891    0.681291765828279  0.0000
  Ge     Ge        0.732558742209306    0.588082490224819    0.693705387634231  0.0000
  Ge     Ge        0.325931171675541    0.598352063947442    0.325068788791648  0.0000
  Ge     Ge        0.824877706714045    0.897147502205242    0.324428502619820  0.0000
  Ge     Ge        0.236880850890392    0.889484115936679    0.672273189581796  0.0000
  Ge     Ge        0.245244828564810    0.090068858352245    0.680170787242046  0.0000
  Ge     Ge        0.827294648358231    0.100395114428778    0.335585121794772  0.0000
  Ge     Ge        0.405324307849810    0.387320432480535    0.666094959759035  0.0000
  Ge     Ge        0.646191359659668    0.396735444819943    0.318399966474649  0.0000
  Ge     Ge        0.646316132231910    0.598236834126625    0.330594857009370  0.0000
  Ge     Ge        0.411366255739675    0.591679255284768    0.682171306168324  0.0000
  Ge     Ge        0.919681850856482    0.891486764380549    0.680277837176099  0.0000
  Ge     Ge        0.138798805698445    0.897443028411595    0.306731902577985  0.0000
  Ge     Ge        0.142571363156881    0.099841783757689    0.316009923360075  0.0000
  Ge     Ge        0.926126477299930    0.094220750689626    0.689974939499272  0.0000
  Si     Si        0.151730697034464    0.742555133957579    0.108745079324673  0.0000
  Si     Si        0.153278006000807    0.250716737879533    0.100631054322653  0.0000
  Si     Si        0.859895987676195    0.238677859479183    0.898251439741376  0.0000
  O1     O1        0.487634913790254    0.251199564801720    0.045868374859317  0.0000
  O1     O1        0.476113736588542    0.745464033436227    0.056223837924873  0.0000
  O3     O3        0.987006776956382    0.742776408860884    0.062468333491773  0.0000
  O2     O2        0.986997783045745    0.250821954743035    0.045094627017336  0.0000
  O1     O1        0.361926096872537    0.155470027189859    0.792067324083715  0.0000
  O1     O1        0.699054457799313    0.158375629355334    0.221735846442976  0.0000
  O1     O1        0.695137301971594    0.843347145343702    0.206825332603670  0.0000
  O1     O1        0.349849835380256    0.817755172451769    0.776123914887148  0.0000
  O1     O1        0.855085330231721    0.652370719835999    0.800406444040179  0.0000
  O3     O3        0.202547635143864    0.661749784237721    0.211969468465644  0.0000
  O3     O3        0.201026070931225    0.337240910044502    0.185871154035290  0.0000
  O3     O3        0.849627955769841    0.315539709471289    0.782958682704284  0.0000
  O1     O1        0.330342261468282    0.329731212316300    0.776297449930476  0.0000
  O1     O1        0.716943938087695    0.333956948177112    0.209780197606016  0.0000
  O1     O1        0.713713959786363    0.667323209741473    0.229290590002359  0.0000
  O1     O1        0.342958258414369    0.644150785359372    0.804694408966912  0.0000
  O1     O1        0.852012161853881    0.831149929723007    0.793850554847654  0.0000
  O3     O3        0.203145834157482    0.828442308630796    0.198634368549681  0.0000
  O3     O3        0.204710438192538    0.171715045225363    0.211053930214222  0.0000
  O3     O3        0.869138709399659    0.150572328973840    0.819320743318074  0.0000
  O3     O3        0.205186315826998    0.240684333308933    0.954900231081225  0.0000
  O3     O3        0.722967034474779    0.237976400734340    0.952516615843611  0.0000
  O1     O1        0.705995370025946    0.745803726111565    0.954120130408558  0.0000
  O3     O3        0.196277106028136    0.739921502894767    0.956494632271063  0.0000
  O1     O1        0.470556755838041    0.398603630200337    0.251418066780782  0.0000
  O1     O1        0.580427304172007    0.382310338839220    0.739039784121735  0.0000
  O1     O1        0.586104015567718    0.590049337935329    0.752812125825212  0.0000
  O1     O1        0.470651184172941    0.598006204726409    0.264471798898550  0.0000
  O1     O1        0.963440637105605    0.899569586054776    0.252125441448275  0.0000
  O1     O1        0.094966344026381    0.890038019747823    0.738809649886209  0.0000
  O1     O1        0.100520767347751    0.087868126846238    0.741820147481056  0.0000
  O1     O1        0.967587573636062    0.101740136637494    0.266290013940427  0.0000
  O1     O1        0.361529562911298    0.352030725065819    0.485181814679309  0.0000
  O1     O1        0.686161111874489    0.357400232625011    0.497172597573352  0.0000
  O1     O1        0.688575017421259    0.626396961274293    0.514349399296382  0.0000
  O1     O1        0.364927200243550    0.634421489910250    0.505334822871450  0.0000
  O1     O1        0.870445858462315    0.854105276023641    0.500535753437072  0.0000
  O1     O1        0.190111748152067    0.862345345963123    0.487640813471724  0.0000
  O1     O1        0.202569392869585    0.126750657000718    0.499793402295070  0.0000
  O1     O1        0.871965043326665    0.138316486692372    0.515150681618570  0.0000
  O1     O1        0.265717376160062    0.496697596476520    0.315778899781739  0.0000
  O1     O1        0.790468255668141    0.485850196585281    0.699008482418975  0.0000
  O1     O1        0.772630039594856    0.998832711670277    0.341747458559416  0.0000
  O1     O1        0.306856450836373    0.988736394953751    0.685399167286766  0.0000
  O1     O1        0.352135340986105    0.490064728817868    0.663814166073875  0.0000
  O1     O1        0.706421973366214    0.497546598496121    0.318415170409314  0.0000
  O1     O1        0.863351289548336    0.993624975859240    0.685351986326960  0.0000
  O1     O1        0.195954780463889    0.998423320174872    0.292846319025517  0.0000
