data_c00200.vasp
_audit_creation_method             Generated by GULP
_audit_author_name                 Salvador R. G. Balestra
_symmetry_space_group_name_H-M     'P 1             '
_symmetry_Int_Tables_number        1

loop_
_symmetry_equiv_pos_site_id
_symmetry_equiv_pos_as_xyz
_cell_length_a                       10.2054
_cell_length_b                       15.8286
_cell_length_c                        9.3024
_cell_angle_alpha                   90.4619
_cell_angle_beta                   105.3414
_cell_angle_gamma                   89.8462

loop_
_atom_site_label
_atom_site_type_symbol
_atom_site_fract_x
_atom_site_fract_y
_atom_site_fract_z
_atom_site_charge
  Ge     Ge        0.351599999999962    0.244500000000016    0.893900000000031  0.0000
  Ge     Ge        0.658389384069733    0.229906601139251    0.102101854372089  0.0000
  Ge     Ge        0.657589525070960    0.740389936478515    0.113787522500000  0.0000
  Ge     Ge        0.351685079274824    0.741091336425698    0.900811973213886  0.0000
  Ge     Ge        0.862259036083504    0.745296802931251    0.902868491557465  0.0000
  Ge     Ge        0.147844982456120    0.237114401225235    0.107429943290375  0.0000
  Ge     Ge        0.327363092303401    0.383578929676135    0.329967561708902  0.0000
  Ge     Ge        0.734397989380018    0.391431247807754    0.690490647011740  0.0000
  Ge     Ge        0.734097174055967    0.593973305221376    0.680479103561899  0.0000
  Ge     Ge        0.329825152186562    0.587561203863223    0.316577443855276  0.0000
  Ge     Ge        0.831007962387047    0.882967120753078    0.340286316870467  0.0000
  Ge     Ge        0.245674335878561    0.895546140976981    0.684544642282698  0.0000
  Ge     Ge        0.240255052056559    0.095270013157895    0.664044665022475  0.0000
  Ge     Ge        0.831900576779670    0.086774005778164    0.323308783714918  0.0000
  Ge     Ge        0.416630934482323    0.393520807514458    0.686736937322775  0.0000
  Ge     Ge        0.644584777949182    0.380978402496301    0.326471640545866  0.0000
  Ge     Ge        0.647379720038745    0.583029839495452    0.316521403469576  0.0000
  Ge     Ge        0.414796208005449    0.597020259011068    0.673412508669436  0.0000
  Ge     Ge        0.929450512971540    0.896087327276467    0.694914766411158  0.0000
  Ge     Ge        0.141984947386475    0.882912354115726    0.320284013303259  0.0000
  Ge     Ge        0.923116862264709    0.098820249604332    0.676252397135824  0.0000
  Si     Si        0.156318323903712    0.732169325896466    0.108813879502523  0.0000
  Si     Si        0.853190778183147    0.241157345494192    0.895648007178890  0.0000
  Si     Si        0.140980997514693    0.081226556140179    0.308596205636531  0.0000
  O1     O1        0.484111163420829    0.230049269373584    0.048090025183004  0.0000
  O1     O1        0.482644110722950    0.738600160086432    0.057500219538270  0.0000
  O3     O3        0.992911954189120    0.730612829787743    0.062215985730506  0.0000
  O3     O3        0.971685871866996    0.243607328689067    0.047999643956239  0.0000
  O1     O1        0.352588812035340    0.168446036225700    0.760216511310189  0.0000
  O1     O1        0.708572339948770    0.137284515704492    0.193523414017932  0.0000
  O1     O1        0.701173553777843    0.823882170851477    0.234900371169988  0.0000
  O1     O1        0.360225735065023    0.829079898377208    0.796048068627688  0.0000
  O1     O1        0.853896693139913    0.662940190028208    0.779672997377394  0.0000
  O3     O3        0.207977136732572    0.646174715665822    0.194196904678600  0.0000
  O1     O1        0.201450344816465    0.321052874364528    0.223644403334972  0.0000
  O3     O3        0.854935145073423    0.324462736437297    0.797871136544151  0.0000
  O1     O1        0.353890816877959    0.341319085491445    0.813820107797237  0.0000
  O1     O1        0.713542142720892    0.312923878885747    0.222984322233476  0.0000
  O1     O1        0.712652108772454    0.647735749594409    0.206779026925650  0.0000
  O1     O1        0.342025544992911    0.654655485555038    0.786932016958426  0.0000
  O1     O1        0.871595666162931    0.840734152802255    0.822223449546242  0.0000
  O3     O3        0.209528054609593    0.812837123350058    0.215983318182747  0.0000
  O3     O3        0.194833582262410    0.142395460835515    0.200546440334105  0.0000
  O3     O3        0.861395614681313    0.158591404573118    0.798535890396018  0.0000
  O1     O1        0.205447069417548    0.238723630822000    0.951735798820073  0.0000
  O3     O3        0.711321029656760    0.238937979468426    0.941191198661675  0.0000
  O1     O1        0.714299580868812    0.748128302456108    0.958191688846291  0.0000
  O3     O3        0.202408444866619    0.741323055372743    0.957673186205885  0.0000
  O1     O1        0.469737829540580    0.378800878810809    0.264031407099154  0.0000
  O1     O1        0.590724850999137    0.396356838147993    0.752490356876732  0.0000
  O1     O1        0.589007287258118    0.599572135547701    0.741819859537912  0.0000
  O1     O1        0.472682053211478    0.581202605711501    0.253655237731216  0.0000
  O1     O1        0.968310929019782    0.877000650808860    0.265678092628045  0.0000
  O1     O1        0.103318983587930    0.900700980782267    0.749380997494611  0.0000
  O1     O1        0.097201887428108    0.098831637049712    0.728420332929012  0.0000
  O3     O3        0.977553732392267    0.080899758836640    0.261691024354938  0.0000
  O1     O1        0.369769678396749    0.349068397605963    0.511481221156306  0.0000
  O1     O1        0.690012688999142    0.353389569947422    0.510958133088356  0.0000
  O1     O1        0.690142498913669    0.621221240368106    0.496004597360787  0.0000
  O1     O1        0.369199176305923    0.631869902988891    0.491999631336259  0.0000
  O1     O1        0.878952373711184    0.848946347223569    0.521648584374764  0.0000
  O1     O1        0.199955921993638    0.857414651615673    0.504375980043719  0.0000
  O3     O3        0.192129239054344    0.117536871761983    0.475963641336756  0.0000
  O1     O1        0.866202359253486    0.134490819394650    0.496099729261141  0.0000
  O1     O1        0.271241991372578    0.486345129571712    0.323616459248668  0.0000
  O1     O1        0.796986712508349    0.492329697114339    0.696160153038380  0.0000
  O1     O1        0.779253424676162    0.985959475840530    0.342201092306067  0.0000
  O1     O1        0.309925490941633    0.995854797221045    0.687455272710226  0.0000
  O1     O1        0.357427432134790    0.495197673309279    0.670621620000511  0.0000
  O1     O1        0.704218082554110    0.481316313157453    0.312358690115044  0.0000
  O1     O1        0.867013689789714    0.997306235612429    0.684066977349092  0.0000
  O3     O3        0.193575132377501    0.985951944435450    0.299514541995071  0.0000
