data_c00251.vasp
_audit_creation_method             Generated by GULP
_audit_author_name                 Salvador R. G. Balestra
_symmetry_space_group_name_H-M     'P 1             '
_symmetry_Int_Tables_number        1

loop_
_symmetry_equiv_pos_site_id
_symmetry_equiv_pos_as_xyz
_cell_length_a                       10.1539
_cell_length_b                       15.8429
_cell_length_c                        9.3112
_cell_angle_alpha                   89.6515
_cell_angle_beta                   105.7182
_cell_angle_gamma                   89.7680

loop_
_atom_site_label
_atom_site_type_symbol
_atom_site_fract_x
_atom_site_fract_y
_atom_site_fract_z
_atom_site_charge
  Ge     Ge        0.351599999999962    0.244500000000016    0.893900000000031  0.0000
  Ge     Ge        0.658836949123594    0.246626958849152    0.108927295853102  0.0000
  Ge     Ge        0.654492283004998    0.754656551198504    0.100682640877232  0.0000
  Ge     Ge        0.155324243798754    0.746384526813503    0.099656730578782  0.0000
  Ge     Ge        0.148328401048512    0.254946320933999    0.103151365880679  0.0000
  Ge     Ge        0.328041734775144    0.400522419868287    0.314801537907818  0.0000
  Ge     Ge        0.733351722438726    0.390137747611299    0.681440829457587  0.0000
  Ge     Ge        0.741473114365217    0.591271552833713    0.692776901124377  0.0000
  Ge     Ge        0.329602962019358    0.604481428469774    0.331799840751458  0.0000
  Ge     Ge        0.824091077597837    0.899356150588310    0.319161325662954  0.0000
  Ge     Ge        0.232869997694450    0.885910730727349    0.674653719961737  0.0000
  Ge     Ge        0.241841329259637    0.086845330453317    0.692179251956290  0.0000
  Ge     Ge        0.828274449877283    0.102586435427019    0.338538973603333  0.0000
  Ge     Ge        0.411949733342338    0.391915677220673    0.671170937273255  0.0000
  Ge     Ge        0.647465077369397    0.401748715359145    0.315471029647400  0.0000
  Ge     Ge        0.649384093515613    0.604031024820238    0.328065678712524  0.0000
  Ge     Ge        0.419585225980165    0.594141416531609    0.687103998655801  0.0000
  Ge     Ge        0.912886706005044    0.889696114722013    0.676130044605229  0.0000
  Ge     Ge        0.142703376152738    0.900191762197032    0.311479083105650  0.0000
  Ge     Ge        0.145026223927744    0.102450598848809    0.328705824707848  0.0000
  Ge     Ge        0.922676423336475    0.092196139887493    0.695636125279610  0.0000
  Si     Si        0.354024010897245    0.738421056874868    0.893863577071786  0.0000
  Si     Si        0.852202476109964    0.745128328562635    0.893381206204803  0.0000
  Si     Si        0.850569140593537    0.239290852633276    0.897715945885353  0.0000
  O1     O1        0.482964848596746    0.250794615589947    0.052093404124281  0.0000
  O3     O3        0.477440102094965    0.751335651740840    0.040856513486006  0.0000
  O3     O3        0.977956298983784    0.748197358309409    0.039906959097235  0.0000
  O3     O3        0.970601116215680    0.253253604654212    0.048145334200590  0.0000
  O1     O1        0.361299917876008    0.152171316708349    0.800436408795481  0.0000
  O1     O1        0.700246235817472    0.162425264727447    0.227982885591685  0.0000
  O1     O1        0.696023257873305    0.847070623044754    0.194991150379421  0.0000
  O3     O3        0.350275334311167    0.813471986573217    0.775470534096225  0.0000
  O3     O3        0.858399079575853    0.659378276385300    0.802975212710572  0.0000
  O1     O1        0.200073176471617    0.662855363435419    0.219356836252124  0.0000
  O1     O1        0.198854702245813    0.348085843992212    0.192820948368116  0.0000
  O3     O3        0.847413743860710    0.315509679324081    0.781593895278992  0.0000
  O1     O1        0.339384715036214    0.330102061374910    0.778185998689400  0.0000
  O1     O1        0.715074744107564    0.337435523626327    0.206160087619017  0.0000
  O1     O1        0.714447365255432    0.672648784540353    0.222825505479575  0.0000
  O3     O3        0.362909407631911    0.649137897877478    0.817984737338272  0.0000
  O3     O3        0.845808038408941    0.826061466816466    0.788239697498221  0.0000
  O1     O1        0.206291176163736    0.837956708927861    0.196021091529163  0.0000
  O1     O1        0.209018536703790    0.172938816232232    0.226043899653870  0.0000
  O3     O3        0.865182994487520    0.150344243679064    0.822828320408830  0.0000
  O1     O1        0.201307741214708    0.244060350326217    0.946056895293103  0.0000
  O3     O3        0.710369408509376    0.238277457124441    0.947501172120538  0.0000
  O3     O3        0.712765872534112    0.746077717842095    0.944306247339549  0.0000
  O3     O3        0.214194249591857    0.739778757237171    0.943693075039638  0.0000
  O1     O1        0.471589594032372    0.402379438121855    0.251041527709251  0.0000
  O1     O1        0.587457665880227    0.390373552406862    0.740607070524084  0.0000
  O1     O1        0.594221117010780    0.586085876164766    0.748737826176365  0.0000
  O1     O1        0.473500587289089    0.608826631639326    0.268872516610791  0.0000
  O1     O1        0.966783801228130    0.900978329969771    0.254259083097322  0.0000
  O1     O1        0.088512612780302    0.888372226916939    0.736668805636188  0.0000
  O1     O1        0.097222416020912    0.084275988909386    0.755080086520199  0.0000
  O1     O1        0.969046950248860    0.105576198041806    0.270233937872668  0.0000
  O1     O1        0.369058147809836    0.356243856838361    0.490517694677385  0.0000
  O1     O1        0.691850978953954    0.364656172140373    0.496135368414535  0.0000
  O1     O1        0.701682755007584    0.629555423485034    0.513355210568848  0.0000
  O1     O1        0.370674299511622    0.639999885789901    0.513340196929378  0.0000
  O1     O1        0.863162599280057    0.855010454479201    0.495258809647086  0.0000
  O1     O1        0.190620799423294    0.859505203037301    0.489972988098976  0.0000
  O1     O1        0.195181197245341    0.127505179154612    0.513863372544049  0.0000
  O1     O1        0.872273032764885    0.136753763008537    0.520713276495952  0.0000
  O1     O1        0.275865092211363    0.502283310852621    0.331304983490698  0.0000
  O1     O1        0.804198924842396    0.489698951291337    0.701481054312847  0.0000
  O1     O1        0.772269087423202    0.000708548234268    0.338226080326023  0.0000
  O1     O1        0.302569885872591    0.985565806064635    0.692480880019514  0.0000
  O1     O1        0.354678701212603    0.493898142501685    0.675317896767076  0.0000
  O1     O1        0.704867426212805    0.502939948407826    0.310216692955704  0.0000
  O1     O1        0.857969715342902    0.991502126534187    0.687937686102502  0.0000
  O1     O1        0.200825466801011    0.001412795667718    0.309054791685956  0.0000
