data_c00250.vasp
_audit_creation_method             Generated by GULP
_audit_author_name                 Salvador R. G. Balestra
_symmetry_space_group_name_H-M     'P 1             '
_symmetry_Int_Tables_number        1

loop_
_symmetry_equiv_pos_site_id
_symmetry_equiv_pos_as_xyz
_cell_length_a                       10.1799
_cell_length_b                       15.8276
_cell_length_c                        9.2985
_cell_angle_alpha                   89.4335
_cell_angle_beta                   105.5547
_cell_angle_gamma                   89.9760

loop_
_atom_site_label
_atom_site_type_symbol
_atom_site_fract_x
_atom_site_fract_y
_atom_site_fract_z
_atom_site_charge
  Ge     Ge        0.351599999999962    0.244500000000016    0.893900000000031  0.0000
  Ge     Ge        0.652518525522938    0.260217306374063    0.106202615011546  0.0000
  Ge     Ge        0.652170949828733    0.761694199679440    0.100482864458219  0.0000
  Ge     Ge        0.142483766406399    0.763913191751733    0.092669785562043  0.0000
  Ge     Ge        0.153996250815494    0.258370176457051    0.106884023683458  0.0000
  Ge     Ge        0.850360670543665    0.252428439270171    0.892423667221670  0.0000
  Ge     Ge        0.262108546955806    0.415834957595154    0.310692077310310  0.0000
  Ge     Ge        0.672536074972358    0.398120305828399    0.666556097222370  0.0000
  Ge     Ge        0.678097818196757    0.600656651205870    0.683939062949497  0.0000
  Ge     Ge        0.269277522137626    0.617579673837914    0.330136185999131  0.0000
  Ge     Ge        0.174289683420970    0.892480461648433    0.661225338262607  0.0000
  Ge     Ge        0.174883055336264    0.095389076630132    0.688049952555047  0.0000
  Ge     Ge        0.769949391272513    0.108408428986470    0.330015254911143  0.0000
  Ge     Ge        0.356924355115972    0.400413171724063    0.675942209856796  0.0000
  Ge     Ge        0.579107062025626    0.412112039476906    0.309108205011305  0.0000
  Ge     Ge        0.589854620940835    0.615710885285536    0.327935081916415  0.0000
  Ge     Ge        0.360017707954669    0.601951444850876    0.693399417830810  0.0000
  Ge     Ge        0.855324879413635    0.891530404280122    0.668407423318181  0.0000
  Ge     Ge        0.078751995606662    0.909183525828953    0.308157055233163  0.0000
  Ge     Ge        0.086578823420240    0.112384782041232    0.331632555555573  0.0000
  Ge     Ge        0.858181502343172    0.091907669342803    0.694924312089858  0.0000
  Si     Si        0.348974404937260    0.756306490680409    0.892861814497316  0.0000
  Si     Si        0.846281009611549    0.743631785299449    0.888010620349337  0.0000
  Si     Si        0.765687214479625    0.911062005589676    0.313409063155602  0.0000
  O1     O1        0.526952502397552    0.245682472348793    0.944461277748585  0.0000
  O3     O3        0.512827085089113    0.760744680526643    0.947895527511102  0.0000
  O3     O3        0.009997936548061    0.746413493526809    0.936437527014819  0.0000
  O1     O1        0.026448781029878    0.252663059487283    0.945180101858753  0.0000
  O1     O1        0.300546012629347    0.150107640199498    0.809423703378908  0.0000
  O1     O1        0.651971520463729    0.178716195216868    0.230566180941201  0.0000
  O3     O3        0.655210655976235    0.852436857574009    0.204246903432369  0.0000
  O3     O3        0.300424329745691    0.830286808321679    0.772042963339747  0.0000
  O3     O3        0.800801906038584    0.653723603469121    0.815702314593414  0.0000
  O1     O1        0.152058119725804    0.687181539873011    0.225967823939677  0.0000
  O1     O1        0.144019029033912    0.350358268132060    0.201304777006895  0.0000
  O1     O1        0.798897797922134    0.334326375834504    0.768890224967204  0.0000
  O1     O1        0.290235750615008    0.327788548297573    0.773550120226556  0.0000
  O1     O1        0.640957670166537    0.355922650512769    0.185897689069313  0.0000
  O1     O1        0.660106019201337    0.675804766407576    0.214439639047903  0.0000
  O3     O3        0.304390091111856    0.666483646252448    0.814235552313847  0.0000
  O3     O3        0.788588399318773    0.816760984320919    0.764729006091290  0.0000
  O1     O1        0.129251103267940    0.860099184866752    0.169531205184856  0.0000
  O1     O1        0.160821692258823    0.173880769770978    0.225103672689316  0.0000
  O1     O1        0.796294327766939    0.157849953848078    0.805897682094579  0.0000
  O1     O1        0.304657123778487    0.256331808962299    0.056002232976592  0.0000
  O1     O1        0.802321562943705    0.262166298824583    0.053615192875877  0.0000
  O3     O3        0.796174633526662    0.759004276523297    0.035091397275600  0.0000
  O3     O3        0.291042526124169    0.765658795017988    0.035495393339900  0.0000
  O1     O1        0.404924047953920    0.419075304120239    0.245396311930655  0.0000
  O1     O1        0.532652371926617    0.396456281091598    0.736748028318378  0.0000
  O1     O1        0.534369506006617    0.594931110499250    0.745993444561890  0.0000
  O1     O1        0.414790273421038    0.621441943012859    0.269944156714381  0.0000
  O3     O3        0.902447719659030    0.915194401687512    0.258608951153441  0.0000
  O1     O1        0.030203413572376    0.889243186330645    0.723867624847778  0.0000
  O1     O1        0.033436547708087    0.089304040145939    0.754639316611899  0.0000
  O1     O1        0.911874056689013    0.116977842017786    0.264377956410026  0.0000
  O1     O1        0.309597367777406    0.376465208279972    0.490015349426226  0.0000
  O1     O1        0.624665148057811    0.366066075190535    0.483602065177082  0.0000
  O1     O1        0.642001339826859    0.647940566632887    0.510970133398185  0.0000
  O1     O1        0.308261870465369    0.643054873240914    0.515657892356259  0.0000
  O3     O3        0.803247241748874    0.871168751693451    0.479482736610580  0.0000
  O1     O1        0.136439017061347    0.859585295451899    0.478872354411787  0.0000
  O1     O1        0.131643758745902    0.143449243505128    0.514821779751203  0.0000
  O1     O1        0.812340924975277    0.131895064907497    0.515642278758535  0.0000
  O1     O1        0.202593512822551    0.517142326728599    0.311331005018797  0.0000
  O1     O1        0.733593873636109    0.499688006002855    0.670620128564061  0.0000
  O3     O3        0.707997792350329    0.005436484931327    0.313881847058459  0.0000
  O1     O1        0.230801976759042    0.994642398464409    0.669212685571387  0.0000
  O1     O1        0.299905401743850    0.500923878929644    0.698293115998153  0.0000
  O1     O1        0.642239991719000    0.513228374711815    0.321252339241317  0.0000
  O1     O1        0.799722953368076    0.990383214753484    0.699868753775540  0.0000
  O1     O1        0.140279747761454    0.009985205454192    0.324270554894655  0.0000
