data_c00001.vasp
_audit_creation_method             Generated by GULP
_audit_author_name                 Salvador R. G. Balestra
_symmetry_space_group_name_H-M     'P 1             '
_symmetry_Int_Tables_number        1

loop_
_symmetry_equiv_pos_site_id
_symmetry_equiv_pos_as_xyz
_cell_length_a                       10.2849
_cell_length_b                       15.0882
_cell_length_c                        8.8850
_cell_angle_alpha                   90.0000
_cell_angle_beta                   105.2110
_cell_angle_gamma                   90.0000

loop_
_atom_site_label
_atom_site_type_symbol
_atom_site_fract_x
_atom_site_fract_y
_atom_site_fract_z
_atom_site_charge
  Si     Si        0.351599999999962    0.244500000000016    0.893900000000031  0.0000
  Si     Si        0.646468053764079    0.246645580686586    0.102889412461423  0.0000
  Si     Si        0.632308645891300    0.759840859158157    0.103579373615168  0.0000
  Si     Si        0.337440933557472    0.757697808598477    0.894586270400798  0.0000
  Si     Si        0.837441007826213    0.746643763328835    0.894586267526074  0.0000
  Si     Si        0.132308553955488    0.744500994924601    0.103579419181631  0.0000
  Si     Si        0.146468041686848    0.257696505434307    0.102889410634239  0.0000
  Si     Si        0.851600120625579    0.259841828889747    0.893900006246301  0.0000
  Si     Si        0.294178012472341    0.400208941725781    0.329949354671694  0.0000
  Si     Si        0.690770367573261    0.400489265823682    0.667618741541574  0.0000
  Si     Si        0.689720697156224    0.604132618077625    0.667527689517181  0.0000
  Si     Si        0.293128722938516    0.603851730848087    0.329859760595663  0.0000
  Si     Si        0.793128400611648    0.900490261846611    0.329859671521868  0.0000
  Si     Si        0.189720860990518    0.900208950028173    0.667527310667167  0.0000
  Si     Si        0.190770547111415    0.103852471407880    0.667618991113683  0.0000
  Si     Si        0.794177977965311    0.104133202597080    0.329949629550019  0.0000
  Si     Si        0.392720824492168    0.400235699862808    0.688470311726786  0.0000
  Si     Si        0.591986340868189    0.400585872989277    0.308956520642632  0.0000
  Si     Si        0.591177411630152    0.604105113980905    0.309007108110460  0.0000
  Si     Si        0.391913654985834    0.603754711083550    0.688522552928170  0.0000
  Si     Si        0.891913439469350    0.900586879914198    0.688522238194764  0.0000
  Si     Si        0.091177461527466    0.900236855861606    0.309006910509536  0.0000
  Si     Si        0.091986386788465    0.103756201433774    0.308956713095981  0.0000
  Si     Si        0.892720928546953    0.104106088447191    0.688470614230515  0.0000
  O2     O2        0.504519563659338    0.224206100685410    0.984614286316831  0.0000
  O2     O2        0.479397196650212    0.780139999603726    0.012842238716073  0.0000
  O2     O2        0.979397217435335    0.724201500344687    0.012842328647415  0.0000
  O2     O2        0.004519670086568    0.280135943077485    0.984613982020089  0.0000
  O2     O2        0.306258575499832    0.165981507644208    0.769318024523861  0.0000
  O2     O2        0.679854602775280    0.167433534427606    0.228306084047814  0.0000
  O2     O2        0.677641577742240    0.838358707058667    0.228165022901912  0.0000
  O2     O2        0.304044906835846    0.836908533252314    0.769167998280746  0.0000
  O2     O2        0.804044886522942    0.667433012496874    0.769168115154447  0.0000
  O2     O2        0.177641786052521    0.665983483943067    0.228165768547322  0.0000
  O2     O2        0.179854576719646    0.336908708122786    0.228305711091193  0.0000
  O2     O2        0.806258333361757    0.338360131346133    0.769317667147638  0.0000
  O2     O2        0.338536762617808    0.338257342959117    0.804538894134308  0.0000
  O2     O2        0.644151276721801    0.339508623220923    0.190613702772085  0.0000
  O2     O2        0.645359167813608    0.666083025193956    0.192936875368650  0.0000
  O2     O2        0.339746720101974    0.664833123444668    0.806862443516897  0.0000
  O2     O2        0.839746915830998    0.839508448962449    0.806862461097186  0.0000
  O2     O2        0.145358610958672    0.838259065147960    0.192936022023244  0.0000
  O2     O2        0.144151314840776    0.164833582509054    0.190614035266808  0.0000
  O2     O2        0.838536984646139    0.166084340340967    0.804539404353960  0.0000
  O2     O2        0.260714667475886    0.249058653792822    0.013108516332473  0.0000
  O2     O2        0.760714706060432    0.255283145655199    0.013108562394461  0.0000
  O2     O2        0.723211572944533    0.755279461611325    0.984390796882128  0.0000
  O2     O2        0.223211521219616    0.749062330398843    0.984390868629885  0.0000
  O2     O2        0.435946533193478    0.379201412327800    0.292963554945826  0.0000
  O2     O2        0.549328847625835    0.378867037716316    0.705417303445399  0.0000
  O2     O2        0.547953561208074    0.625140218587264    0.704517302774096  0.0000
  O2     O2        0.434569532722042    0.625473487504466    0.292059410616297  0.0000
  O2     O2        0.934570603842152    0.878866334814824    0.292063688226304  0.0000
  O2     O2        0.047952268808216    0.879198946385911    0.704512356031747  0.0000
  O2     O2        0.049328026715279    0.125476909125791    0.705414040578658  0.0000
  O2     O2        0.935947542001631    0.125142858869303    0.292967400292867  0.0000
  O2     O2        0.306602933625742    0.382524342900179    0.511822629490086  0.0000
  O2     O2        0.678530167717544    0.382837196783410    0.485597443918148  0.0000
  O2     O2        0.677294417660028    0.621817627895407    0.485654451616364  0.0000
  O2     O2        0.305370750275095    0.621502182707947    0.511881455404094  0.0000
  O2     O2        0.805366598454432    0.882841657719990    0.511881483101297  0.0000
  O2     O2        0.177298374490138    0.882526228890834    0.485653789689446  0.0000
  O2     O2        0.178533376051587    0.121502624348408    0.485597466543022  0.0000
  O2     O2        0.806600006301693    0.121815681770022    0.511823218755024  0.0000
  O2     O2        0.252769300999340    0.501935133346702    0.288470093248005  0.0000
  O2     O2        0.731128362983654    0.502406275711481    0.709005825902159  0.0000
  O2     O2        0.752771131973093    0.002406972766885    0.288466272318464  0.0000
  O2     O2        0.231126481006201    0.001935367945058    0.709009914860163  0.0000
  O2     O2        0.375170679108411    0.501895233654561    0.734632708492622  0.0000
  O2     O2        0.608729661102223    0.502445435296546    0.262847116769315  0.0000
  O2     O2        0.875174803123542    0.002446430492345    0.734636291612165  0.0000
  O2     O2        0.108725662913278    0.001896625007326    0.262843477301352  0.0000
