data_image0
_chemical_formula_structural       Si24O48
_chemical_formula_sum              "Si24 O48"
_cell_length_a       10.783450023601047
_cell_length_b       15.516204582186523
_cell_length_c       9.188121028073331
_cell_angle_alpha    89.99968897035232
_cell_angle_beta     105.64221112672078
_cell_angle_gamma    89.99810035241403

_space_group_name_H-M_alt    "P 1"
_space_group_IT_number       1

loop_
  _space_group_symop_operation_xyz
  'x, y, z'

loop_
  _atom_site_type_symbol
  _atom_site_label
  _atom_site_symmetry_multiplicity
  _atom_site_fract_x
  _atom_site_fract_y
  _atom_site_fract_z
  _atom_site_occupancy
  Si  Si1       1.0  0.33761346770332296  0.2289443642001498  0.8840133887970267  1.0000
  Si  Si2       1.0  0.6327066015638075  0.22916189739119025  0.0947952556951604  1.0000
  Si  Si3       1.0  0.6326901156977266  0.7410757752542386  0.09479838759259655  1.0000
  Si  Si4       1.0  0.3375950056056236  0.7412711428592953  0.8840284632577824  1.0000
  Si  Si5       1.0  0.8375574926584862  0.7289296210881802  0.88399165103492  1.0000
  Si  Si6       1.0  0.1326884871908526  0.7291786814137212  0.09478934941916937  1.0000
  Si  Si7       1.0  0.1326764489283146  0.24106133845045677  0.0947415529335833  1.0000
  Si  Si8       1.0  0.8375591581364029  0.2412260554905383  0.8839690543136318  1.0000
  Si  Si9       1.0  0.2886800948820643  0.3823888854426451  0.31973160419583535  1.0000
  Si  Si10      1.0  0.6799344290657354  0.38232922012550696  0.6589965721604943  1.0000
  Si  Si11      1.0  0.6799875555257633  0.5878172819372339  0.659054199292705  1.0000
  Si  Si12      1.0  0.28868825261161757  0.5878548776008148  0.31978971339435114  1.0000
  Si  Si13      1.0  0.7887301559772264  0.8824011197920919  0.3198006708824121  1.0000
  Si  Si14      1.0  0.1799178355563285  0.8823612911799985  0.6590165214645493  1.0000
  Si  Si15      1.0  0.1799034027202157  0.08784583408084888  0.65903824546621  1.0000
  Si  Si16      1.0  0.7887141817337594  0.08784306606271329  0.3198562227630671  1.0000
  Si  Si17      1.0  0.38814238559014547  0.38256110749114186  0.6795923400471707  1.0000
  Si  Si18      1.0  0.5804343733986248  0.3825208120398859  0.29926510779955445  1.0000
  Si  Si19      1.0  0.5804803979894094  0.5877342302480839  0.29936989270754377  1.0000
  Si  Si20      1.0  0.388174699710757  0.5876436724054266  0.67963684828431  1.0000
  Si  Si21      1.0  0.8881323071136015  0.8825364267187773  0.6796282919947152  1.0000
  Si  Si22      1.0  0.08050041841422996  0.8825437719891416  0.2993077481611998  1.0000
  Si  Si23      1.0  0.08047267075015357  0.08771582754394544  0.29931455705517396  1.0000
  Si  Si24      1.0  0.8881397115178067  0.0876113476302049  0.6796778529859244  1.0000
  O   O1        1.0  0.48586047860002857  0.20623922493069138  0.987540717968778  1.0000
  O   O2        1.0  0.48581882468795373  0.7639975441276214  0.9875970475255557  1.0000
  O   O3        1.0  0.9858139383479113  0.7063381429886839  0.9875751141743214  1.0000
  O   O4        1.0  0.9858297750330305  0.2639191461652849  0.9874312881248114  1.0000
  O   O5        1.0  0.2997529807197322  0.14840033444490944  0.7589617965321418  1.0000
  O   O6        1.0  0.6690276176610955  0.14860525765667687  0.22001755300557185  1.0000
  O   O7        1.0  0.66902295342701  0.8216784697713567  0.21992875999281913  1.0000
  O   O8        1.0  0.29975141674534944  0.8217859172895439  0.7589183846771046  1.0000
  O   O9        1.0  0.7998421320010356  0.6483594746706934  0.7589954688773837  1.0000
  O   O10       1.0  0.16898129494925218  0.648588753088838  0.2199403241836255  1.0000
  O   O11       1.0  0.16896334993283865  0.32167361432832464  0.21986229220237888  1.0000
  O   O12       1.0  0.799761370307484  0.32171162164596734  0.7588049156687033  1.0000
  O   O13       1.0  0.3286349011709979  0.324249530571359  0.796679904000869  1.0000
  O   O14       1.0  0.639803846763086  0.3243953549382509  0.18189031235039363  1.0000
  O   O15       1.0  0.639829958034209  0.6458707038636985  0.18199785044900868  1.0000
  O   O16       1.0  0.328727996616163  0.6459477154374252  0.7967836056708126  1.0000
  O   O17       1.0  0.8285257502277501  0.8241945915028831  0.7965652550940722  1.0000
  O   O18       1.0  0.13984677285740305  0.8243810173574537  0.18197185880577338  1.0000
  O   O19       1.0  0.13980904635421731  0.14586901421312642  0.18196507435683748  1.0000
  O   O20       1.0  0.8285851670318055  0.14590938429321418  0.7967209753426282  1.0000
  O   O21       1.0  0.23670205197312172  0.23474184126674444  0.9913553800651141  1.0000
  O   O22       1.0  0.7367589691220815  0.2355138277716527  0.991449334381261  1.0000
  O   O23       1.0  0.7366730496180497  0.7346838204369841  0.9913649165132036  1.0000
  O   O24       1.0  0.23664711268141947  0.7354375625516173  0.9913177099563315  1.0000
  O   O25       1.0  0.42342470304322805  0.3603615002086768  0.26899941814419986  1.0000
  O   O26       1.0  0.5451914115941557  0.36045646415907195  0.709857454213445  1.0000
  O   O27       1.0  0.5452312258821315  0.6097242722545498  0.7098602479892043  1.0000
  O   O28       1.0  0.42347817131412857  0.6099138411109786  0.269160954121859  1.0000
  O   O29       1.0  0.9234086339432648  0.8605712792995498  0.268789837745335  1.0000
  O   O30       1.0  0.04528370485579558  0.860646526946732  0.710221502318213  1.0000
  O   O31       1.0  0.04527370677158905  0.10952941878661801  0.7102488035076446  1.0000
  O   O32       1.0  0.9233655299842157  0.10963360503185157  0.2688042871561882  1.0000
  O   O33       1.0  0.30634759448212606  0.35870713863191156  0.5020166831960747  1.0000
  O   O34       1.0  0.662168360863569  0.35844052186815845  0.47676954417452055  1.0000
  O   O35       1.0  0.6622804086643771  0.6117635909743263  0.47686537832731773  1.0000
  O   O36       1.0  0.30632966632587716  0.6115213660774178  0.50208072539608  1.0000
  O   O37       1.0  0.8066541123033932  0.8584738409947374  0.5020350421866144  1.0000
  O   O38       1.0  0.16197831562392564  0.8582848944745967  0.47682914999083315  1.0000
  O   O39       1.0  0.1619351758679108  0.11195288246056906  0.4768443647415732  1.0000
  O   O40       1.0  0.8066673697952315  0.1117334227456715  0.5021115434485114  1.0000
  O   O41       1.0  0.2439721763649776  0.4851260008180764  0.2831085112534698  1.0000
  O   O42       1.0  0.724722487869993  0.4850639459302406  0.695351554882365  1.0000
  O   O43       1.0  0.7437847661228705  0.9851232560396432  0.28355010814988946  1.0000
  O   O44       1.0  0.22481251652658274  0.9851018299551807  0.6949564568375776  1.0000
  O   O45       1.0  0.3650799474490888  0.48509494854376667  0.7217918975373694  1.0000
  O   O46       1.0  0.603516960615641  0.4851308554896703  0.2575469331769302  1.0000
  O   O47       1.0  0.8647305656353859  0.9850699487820045  0.7215567164518484  1.0000
  O   O48       1.0  0.1038715017272745  0.985131394101412  0.2577068918026466  1.0000
