data_c00001.vasp
_audit_creation_method             Generated by GULP
_audit_author_name                 Salvador R. G. Balestra
_symmetry_space_group_name_H-M     'P 1             '
_symmetry_Int_Tables_number        1

loop_
_symmetry_equiv_pos_site_id
_symmetry_equiv_pos_as_xyz
_cell_length_a                       10.2757
_cell_length_b                       15.9830
_cell_length_c                        9.3897
_cell_angle_alpha                   89.9630
_cell_angle_beta                   105.4233
_cell_angle_gamma                   89.9925

loop_
_atom_site_label
_atom_site_type_symbol
_atom_site_fract_x
_atom_site_fract_y
_atom_site_fract_z
_atom_site_charge
  Ge     Ge        0.351599999999962    0.244500000000016    0.893900000000031  0.0000
  Ge     Ge        0.652818616938317    0.237025778621594    0.105858024009623  0.0000
  Ge     Ge        0.652780497077691    0.748482877862787    0.105720375035961  0.0000
  Ge     Ge        0.351707345837240    0.739673633054955    0.893938999236568  0.0000
  Ge     Ge        0.851650199547158    0.744482134175712    0.893871348958873  0.0000
  Ge     Ge        0.152851088507602    0.737031480596620    0.105867139052040  0.0000
  Ge     Ge        0.152722722413178    0.248501406441882    0.105748133252315  0.0000
  Ge     Ge        0.851654497668167    0.239668987174205    0.893904019667562  0.0000
  Ge     Ge        0.330470338559058    0.391431735264022    0.325263900957961  0.0000
  Ge     Ge        0.736632114858051    0.391736313309525    0.676379617230086  0.0000
  Ge     Ge        0.737085328150098    0.592107555159703    0.677584838200908  0.0000
  Ge     Ge        0.330735910074849    0.594305975641254    0.326599054487472  0.0000
  Ge     Ge        0.830519892520377    0.891418664100134    0.325261024732066  0.0000
  Ge     Ge        0.236654948506927    0.891739454294260    0.676386404211188  0.0000
  Ge     Ge        0.237069107001667    0.092115555263911    0.677617859219606  0.0000
  Ge     Ge        0.830733345897501    0.094293166314794    0.326553242674986  0.0000
  Ge     Ge        0.421376590919999    0.390945623838445    0.678431318294626  0.0000
  Ge     Ge        0.643451104854351    0.392328289435285    0.314477450795415  0.0000
  Ge     Ge        0.643661177551269    0.593480781886787    0.315671604210768  0.0000
  Ge     Ge        0.421883417291461    0.593044058673399    0.679753702152911  0.0000
  Ge     Ge        0.921390952647704    0.890949480811524    0.678430216285226  0.0000
  Ge     Ge        0.143511023718659    0.892344245405096    0.314472388568426  0.0000
  Ge     Ge        0.143682039971693    0.093491149195013    0.315694259316632  0.0000
  Ge     Ge        0.921834156342803    0.093053265360516    0.679701895888956  0.0000
  O1     O1        0.478920429854729    0.237018577869180    0.053005608668861  0.0000
  O1     O1        0.478911211631894    0.748357758208249    0.052934200083829  0.0000
  O1     O1        0.978953385349997    0.736999094630097    0.052991174264941  0.0000
  O1     O1        0.978857779467068    0.248314997593183    0.052921256434024  0.0000
  O1     O1        0.353244705904309    0.159732022683200    0.781208044795943  0.0000
  O1     O1        0.703059702845027    0.150405682044854    0.213573360253190  0.0000
  O1     O1        0.702920943141301    0.835838591025931    0.211230334657364  0.0000
  O1     O1        0.352671706877490    0.823686416082778    0.779290566872724  0.0000
  O1     O1        0.853276511276494    0.659728005426985    0.781157639327287  0.0000
  O1     O1        0.203072327591610    0.650430984976276    0.213638413130651  0.0000
  O1     O1        0.202834477777641    0.335869352900668    0.211240753224338  0.0000
  O1     O1        0.852665877572451    0.323694014885585    0.779290461438114  0.0000
  O1     O1        0.356624199366240    0.335125487429841    0.798260466879084  0.0000
  O1     O1        0.708183063208580    0.325898131189112    0.208315307836624  0.0000
  O1     O1        0.708657189815047    0.660310847445480    0.210283022897375  0.0000
  O1     O1        0.357814428970999    0.648411289764020    0.800626332016102  0.0000
  O1     O1        0.856668366044972    0.835125670165338    0.798281639703134  0.0000
  O1     O1        0.208218448870606    0.825918171709062    0.208282713587833  0.0000
  O1     O1        0.208660640452598    0.160350692517293    0.210336971767952  0.0000
  O1     O1        0.857694585993331    0.148426106080815    0.800514861494068  0.0000
  O1     O1        0.203317393720639    0.247126854440817    0.946567810627619  0.0000
  O1     O1        0.703428301783679    0.237174298282502    0.946699268640083  0.0000
  O1     O1        0.703351575902931    0.747105515325722    0.946530812279560  0.0000
  O1     O1        0.203472056626659    0.737152688070189    0.946717698953334  0.0000
  O1     O1        0.469688952788993    0.390589323940161    0.256557389730427  0.0000
  O1     O1        0.594618038394366    0.391260738184344    0.740364030046015  0.0000
  O1     O1        0.595101521951612    0.592198368606219    0.741589894004857  0.0000
  O1     O1        0.469879949284568    0.595580892287718    0.257740190698710  0.0000
  O1     O1        0.969750866898652    0.890591274834663    0.256577722349163  0.0000
  O1     O1        0.094633140109303    0.891266617899028    0.740352916932556  0.0000
  O1     O1        0.095048209340191    0.092227113683328    0.741563132771510  0.0000
  O1     O1        0.969903010432627    0.095581473932072    0.257745571377749  0.0000
  O1     O1        0.373244625906109    0.351144277927982    0.501867099034498  0.0000
  O1     O1        0.691492033272826    0.360239717939014    0.495324778753028  0.0000
  O1     O1        0.691866577602799    0.624573085581983    0.496936340953472  0.0000
  O1     O1        0.373770323594311    0.633722214388817    0.503719019505729  0.0000
  O1     O1        0.873269218876598    0.851139800925903    0.501871367225299  0.0000
  O1     O1        0.191570805971874    0.860257303650128    0.495322341912202  0.0000
  O1     O1        0.191885484621311    0.124566864110703    0.496960307746291  0.0000
  O1     O1        0.873732790628517    0.133720159696969    0.503664693700391  0.0000
  O1     O1        0.278551901542918    0.492845969913898    0.334005705061551  0.0000
  O1     O1        0.799778033210978    0.491889134599086    0.686647381370472  0.0000
  O1     O1        0.778574924897240    0.992829024896487    0.333974228740521  0.0000
  O1     O1        0.299774818665470    0.991898821928271    0.686701181425629  0.0000
  O1     O1        0.364164322043555    0.492041074854186    0.673503466654370  0.0000
  O1     O1        0.698531369890039    0.492920044783330    0.301956985800255  0.0000
  O1     O1        0.864160498114976    0.992040255470683    0.673484110574647  0.0000
  O1     O1        0.198568033039264    0.992938770368832    0.301933393068601  0.0000
