data_POSCAR_N0020.vasp
_audit_creation_method             Generated by GULP
_audit_author_name                 Salvador R. G. Balestra
_symmetry_space_group_name_H-M     'P 1             '
_symmetry_Int_Tables_number        1

loop_
_symmetry_equiv_pos_site_id
_symmetry_equiv_pos_as_xyz
_cell_length_a                       17.6710
_cell_length_b                        7.8526
_cell_length_c                       10.2189
_cell_angle_alpha                   89.7663
_cell_angle_beta                    90.4950
_cell_angle_gamma                   88.7779

loop_
_atom_site_label
_atom_site_type_symbol
_atom_site_fract_x
_atom_site_fract_y
_atom_site_fract_z
_atom_site_charge
  Ge     Ge        0.052090000000021    0.000000000000000    0.372269999999958  0.0000
  Ge     Ge        0.448458689345626    0.957109889067510    0.362420188586719  0.0000
  Ge     Ge        0.942667032154526    0.946881223102386    0.616671997497396  0.0000
  Ge     Ge        0.550598428064740    0.997939613127400    0.620679005577730  0.0000
  Ge     Ge        0.551838892574186    0.991622213808246    0.105301766706575  0.0000
  Ge     Ge        0.950290929731523    0.941413106183572    0.115615223597331  0.0000
  Ge     Ge        0.439291300032241    0.951221352805140    0.860480931633014  0.0000
  Ge     Ge        0.052859326158144    0.004879572976795    0.863072958472803  0.0000
  Ge     Ge        0.152199620536925    0.312874899286171    0.302200014175477  0.0000
  Ge     Ge        0.352565806710763    0.641053232124876    0.292967261389552  0.0000
  Ge     Ge        0.823042355000634    0.232276439988768    0.732055310335290  0.0000
  Ge     Ge        0.669331147064386    0.699264708811597    0.732556921507511  0.0000
  Ge     Ge        0.849911765170296    0.632313515132663    0.731077721551933  0.0000
  Ge     Ge        0.172300087505475    0.713674843344439    0.299944540778428  0.0000
  Ge     Ge        0.647999222411706    0.310032745161098    0.046540731990271  0.0000
  Ge     Ge        0.847497078012485    0.632487430271393    0.052338957474002  0.0000
  Ge     Ge        0.324678783283538    0.247804014257335    0.980932539562733  0.0000
  Ge     Ge        0.171667077313690    0.719251968639532    0.982816945590641  0.0000
  Ge     Ge        0.144061936651255    0.318965319750294    0.982673319622753  0.0000
  Ge     Ge        0.827559520864698    0.231856945647302    0.048806126755744  0.0000
  Si     Si        0.645437024809171    0.303368413888205    0.737671307277461  0.0000
  Si     Si        0.329097835492982    0.242766891773837    0.290671827956060  0.0000
  Si     Si        0.349377427412166    0.645617359564899    0.985048130317753  0.0000
  Si     Si        0.671246380418318    0.705582477381217    0.043599793457605  0.0000
  O1     O1        0.091452315982106    0.195884904715568    0.393969058411938  0.0000
  O1     O1        0.413285072703163    0.756181647228424    0.386751864617331  0.0000
  O1     O1        0.865175002589105    0.077599711406187    0.639521805711020  0.0000
  O1     O1        0.617919706472707    0.839386052877975    0.639095575299711  0.0000
  O1     O1        0.917440062238853    0.741387136208964    0.647970384057649  0.0000
  O3     O3        0.585235551856953    0.196924021892539    0.655759862726169  0.0000
  O1     O1        0.122595661673860    0.849472254778718    0.398845073372494  0.0000
  O3     O3        0.376441338899985    0.110121917382515    0.379226265437474  0.0000
  O1     O1        0.971239152744598    0.965976850545652    0.456317569674776  0.0000
  O1     O1        0.524474185690932    0.000998277407915    0.457365191204594  0.0000
  O1     O1        0.027480652038127    0.981998555165015    0.208192781997268  0.0000
  O1     O1        0.476826105701834    0.954258258332974    0.201300838288788  0.0000
  O1     O1        0.022173181126487    0.002595975951212    0.703258427021273  0.0000
  O1     O1        0.468136780133753    0.954593355244621    0.700249332769750  0.0000
  O1     O1        0.586310765413163    0.192582792242645    0.134228160515881  0.0000
  O1     O1        0.910136719145366    0.746166823234074    0.142423235309016  0.0000
  O1     O1        0.371732754134181    0.108166595439378    0.882807835615130  0.0000
  O1     O1        0.131293077580343    0.874367648271198    0.886486497173003  0.0000
  O3     O3        0.405622903938850    0.750542883093008    0.895182453421546  0.0000
  O1     O1        0.075912137203582    0.210768396172669    0.900294468835911  0.0000
  O3     O3        0.624464567500914    0.840495228805755    0.128473691918197  0.0000
  O1     O1        0.879670095313569    0.091625822210346    0.140885594964206  0.0000
  O1     O1        0.520834602256651    0.988530597098273    0.945614050417949  0.0000
  O1     O1        0.978133764642574    0.938423048083875    0.954135833366368  0.0000
  O1     O1        0.159995848627505    0.512032408649567    0.363470931881834  0.0000
  O3     O3        0.342534849662893    0.433454069143149    0.344364050062887  0.0000
  O1     O1        0.841936468081118    0.430097409112350    0.669676992085534  0.0000
  O3     O3        0.655431222289432    0.491734765884886    0.679162312285424  0.0000
  O3     O3        0.239956665690692    0.207579933971751    0.294991348668755  0.0000
  O1     O1        0.267233735209667    0.749264711831749    0.299359952819911  0.0000
  O3     O3        0.726225140906508    0.203300416666011    0.736372463786113  0.0000
  O1     O1        0.763723573164873    0.738522138874706    0.719179964032350  0.0000
  O1     O1        0.119064870969898    0.331519369982609    0.144321288904823  0.0000
  O3     O3        0.382684705298580    0.634169184677867    0.131788992096797  0.0000
  O1     O1        0.858057009978831    0.217052838216722    0.889042921362993  0.0000
  O3     O3        0.641549159872322    0.716927390684583    0.893949207719854  0.0000
  O1     O1        0.875916972874460    0.614401918560785    0.892456200547288  0.0000
  O3     O3        0.616827722431323    0.320980405664632    0.885468372458261  0.0000
  O1     O1        0.139102989216549    0.730073788686100    0.140688154961299  0.0000
  O3     O3        0.356976605792567    0.226539315541311    0.140891623816629  0.0000
  O3     O3        0.658702605182391    0.515472356079951    0.100977247897361  0.0000
  O1     O1        0.840771848940456    0.432148092313968    0.113184405117063  0.0000
  O3     O3        0.338671690342611    0.456440893125187    0.929895348983573  0.0000
  O1     O1        0.150910649609195    0.521711277934384    0.921575285355229  0.0000
  O1     O1        0.732513205823909    0.198382782760876    0.051350303632922  0.0000
  O3     O3        0.760261032114254    0.740754421246602    0.047915926153762  0.0000
  O1     O1        0.229909301587134    0.211910158880623    0.971568814065443  0.0000
  O3     O3        0.268601158056550    0.744702511848166    0.988501874551047  0.0000
