data_POSCAR_N0013.vasp
_audit_creation_method             Generated by GULP
_audit_author_name                 Salvador R. G. Balestra
_symmetry_space_group_name_H-M     'P 1             '
_symmetry_Int_Tables_number        1

loop_
_symmetry_equiv_pos_site_id
_symmetry_equiv_pos_as_xyz
_cell_length_a                       16.8995
_cell_length_b                        7.6905
_cell_length_c                       11.0076
_cell_angle_alpha                   91.4322
_cell_angle_beta                    92.0148
_cell_angle_gamma                   90.4196

loop_
_atom_site_label
_atom_site_type_symbol
_atom_site_fract_x
_atom_site_fract_y
_atom_site_fract_z
_atom_site_charge
  Ge     Ge        0.052090000000021    0.000000000000000    0.372269999999958  0.0000
  Ge     Ge        0.465160066189127    0.979864693998323    0.361462361817399  0.0000
  Ge     Ge        0.952521596886585    0.986365602910296    0.631500675799581  0.0000
  Ge     Ge        0.542367863378920    0.962191164776606    0.635005127573158  0.0000
  Ge     Ge        0.569681541854749    0.006418282493963    0.109603569569583  0.0000
  Ge     Ge        0.942196208850809    0.026439688079931    0.119560608925257  0.0000
  Ge     Ge        0.439647045076444    0.973621459347687    0.880721824115989  0.0000
  Ge     Ge        0.054739020460173    0.979786745039128    0.886993065754205  0.0000
  Ge     Ge        0.365803073943386    0.649456441216729    0.280708637114850  0.0000
  Ge     Ge        0.637487689621804    0.640447805985282    0.716420539257932  0.0000
  Ge     Ge        0.829779601372807    0.708178921403063    0.707255686799571  0.0000
  Ge     Ge        0.173948948471389    0.708202118230939    0.282410372994869  0.0000
  Ge     Ge        0.837731684771712    0.749617281142504    0.989882827849460  0.0000
  Si     Si        0.153397256649278    0.302043749511087    0.267448496542878  0.0000
  Si     Si        0.852433587063321    0.300710913413384    0.742275133997112  0.0000
  Si     Si        0.670927316698274    0.238382240941106    0.747186537231693  0.0000
  Si     Si        0.339370885395339    0.246567823826173    0.263086105667629  0.0000
  Si     Si        0.681613218881822    0.296650187675939    0.030558478797164  0.0000
  Si     Si        0.328318545894669    0.256459430729418    0.982623165227485  0.0000
  Si     Si        0.171280723837209    0.709002905720717    0.998012633403629  0.0000
  Si     Si        0.356479355971502    0.652636453701252    0.993824131653186  0.0000
  Si     Si        0.144118449016471    0.308810232135200    0.989994217550483  0.0000
  Si     Si        0.647551928855094    0.675714126344367    0.993127029416011  0.0000
  Si     Si        0.863479941697524    0.356457570821398    0.024396160462283  0.0000
  O3     O3        0.104144825009458    0.191964535575032    0.357108204073441  0.0000
  O1     O1        0.435044399493800    0.766658302742893    0.365526085896805  0.0000
  O3     O3        0.911635885721949    0.184620056003474    0.669331955234347  0.0000
  O1     O1        0.571543231766683    0.748657377522073    0.624705727437753  0.0000
  O1     O1        0.881299929441938    0.828816954818916    0.606561527302504  0.0000
  O3     O3        0.627558972578074    0.073907314439888    0.686277792358015  0.0000
  O1     O1        0.120337524367603    0.836543107456731    0.376339901983388  0.0000
  O3     O3        0.377702961720222    0.096693391724975    0.340655001409900  0.0000
  O1     O1        0.002204455957657    0.016755177379561    0.501804840894722  0.0000
  O1     O1        0.511375429679747    0.037198686438339    0.496955524081911  0.0000
  O1     O1        0.983466484751562    0.971510877677336    0.254510879177628  0.0000
  O1     O1        0.527694036587717    0.020162164302467    0.246998748684455  0.0000
  O1     O1        0.020936282764141    0.934625060824630    0.743430067379957  0.0000
  O1     O1        0.467691535167483    0.988216076122221    0.734816852833919  0.0000
  O3     O3        0.644865892715664    0.161849951296074    0.119088273223528  0.0000
  O1     O1        0.854091949121207    0.907649278977666    0.096351602007741  0.0000
  O3     O3        0.360695238644061    0.117145099590114    0.890214548225011  0.0000
  O3     O3        0.134564570461089    0.839590205222873    0.904339474111195  0.0000
  O3     O3        0.409616723418048    0.761808030854624    0.906431166230866  0.0000
  O3     O3        0.085632836317288    0.197852726634757    0.902720666912259  0.0000
  O3     O3        0.614662847827449    0.804638817083566    0.093255833161414  0.0000
  O3     O3        0.923011024895216    0.246124631258516    0.108632349484889  0.0000
  O1     O1        0.508880221028476    0.045862629254349    0.987332557384678  0.0000
  O1     O1        0.990674388909572    0.935228777830574    0.998324214726319  0.0000
  O3     O3        0.135251693991198    0.501278462411253    0.291275728655091  0.0000
  O3     O3        0.381856470442183    0.429856366372893    0.296662857372031  0.0000
  O3     O3        0.864647279218233    0.497530987443606    0.707188831882441  0.0000
  O3     O3        0.629241807305563    0.416179584248507    0.706290346184198  0.0000
  O2     O2        0.247013981780541    0.269664332803123    0.289344615835315  0.0000
  O1     O1        0.272603248178806    0.706864899396825    0.322067183079406  0.0000
  O2     O2        0.761975672188053    0.241581567828058    0.707424210593244  0.0000
  O1     O1        0.730351694331035    0.704194937905624    0.676433526951537  0.0000
  O2     O2        0.127235705135951    0.245090599746046    0.127520236005208  0.0000
  O3     O3        0.382714136631479    0.705176569438046    0.131564921772007  0.0000
  O2     O2        0.870489592678189    0.277255652368761    0.886817199397309  0.0000
  O3     O3        0.606425935393632    0.706460034285489    0.861074137866299  0.0000
  O1     O1        0.859685628479797    0.804744245894544    0.844429690515394  0.0000
  O2     O2        0.670239917620928    0.219014600132738    0.892886433414810  0.0000
  O3     O3        0.160181247135802    0.779615201654593    0.135106108978521  0.0000
  O2     O2        0.349138779977315    0.196665138101998    0.120414690008855  0.0000
  O2     O2        0.634592741056289    0.479144111086099    0.039782883287901  0.0000
  O3     O3        0.885377412834628    0.557123851768915    0.032955450833598  0.0000
  O2     O2        0.368354746287550    0.446766231845075    0.967651981592282  0.0000
  O2     O2        0.130917383751661    0.515881921856980    0.982989289074016  0.0000
  O2     O2        0.773890183498440    0.325278174876848    0.068028841192223  0.0000
  O3     O3        0.739732866500806    0.688472911137540    0.963364274139075  0.0000
  O2     O2        0.234332828001110    0.267702844909559    0.958957120105544  0.0000
  O2     O2        0.264269277502693    0.695683209896085    0.974866548106279  0.0000
