data_POSCAR_N0007.vasp
_audit_creation_method             Generated by GULP
_audit_author_name                 Salvador R. G. Balestra
_symmetry_space_group_name_H-M     'P 1             '
_symmetry_Int_Tables_number        1

loop_
_symmetry_equiv_pos_site_id
_symmetry_equiv_pos_as_xyz
_cell_length_a                       17.3222
_cell_length_b                        7.6623
_cell_length_c                       10.2263
_cell_angle_alpha                   89.3759
_cell_angle_beta                    89.7536
_cell_angle_gamma                   88.6489

loop_
_atom_site_label
_atom_site_type_symbol
_atom_site_fract_x
_atom_site_fract_y
_atom_site_fract_z
_atom_site_charge
  Ge     Ge        0.447909999999979    0.000000000000000    0.372269999999958  0.0000
  Ge     Ge        0.950495282263726    0.003986364372981    0.621003541083172  0.0000
  Ge     Ge        0.150480794105022    0.326000797315520    0.293901513877731  0.0000
  Ge     Ge        0.653691414967653    0.324549753692595    0.710333626095570  0.0000
  Ge     Ge        0.847924857830485    0.663034883577563    0.041882109675244  0.0000
  Ge     Ge        0.349080032086454    0.672013121380509    0.972437788524301  0.0000
  Ge     Ge        0.664615953290495    0.682405740598331    0.055794423638862  0.0000
  Si     Si        0.045435786176162    0.022515922050703    0.354652335927851  0.0000
  Si     Si        0.548558696047948    0.025896312792161    0.632315629006885  0.0000
  Si     Si        0.558684715609340    0.991457675128947    0.121206362275947  0.0000
  Si     Si        0.946102849365616    0.974932184700184    0.102066278463688  0.0000
  Si     Si        0.447408747543691    0.977829563291948    0.879813644114788  0.0000
  Si     Si        0.062142241656188    0.005040689196262    0.865373097866446  0.0000
  Si     Si        0.342160554189773    0.699994965234555    0.279510436726430  0.0000
  Si     Si        0.835865677823806    0.302243174098390    0.704767716054090  0.0000
  Si     Si        0.664059341565765    0.732390645807354    0.741899431353167  0.0000
  Si     Si        0.840004700965125    0.707356104411178    0.732800769031255  0.0000
  Si     Si        0.163422366033572    0.731147691752510    0.269679612079931  0.0000
  Si     Si        0.331428387274765    0.296080643815678    0.302506944255479  0.0000
  Si     Si        0.657029007769141    0.289787074460917    0.017191140001282  0.0000
  Si     Si        0.336981349769006    0.267516018724571    0.998999299506127  0.0000
  Si     Si        0.167214378496774    0.700186774408567    0.962949428000984  0.0000
  Si     Si        0.158432294041176    0.303327988644638    0.983136816784696  0.0000
  Si     Si        0.838602986692941    0.268183479243917    0.004908093136059  0.0000
  O3     O3        0.083978098605153    0.207722904906236    0.380897933141588  0.0000
  O3     O3        0.396278619598468    0.810363401098503    0.370052163147897  0.0000
  O3     O3        0.892191979362405    0.190084889109797    0.613844194900003  0.0000
  O2     O2        0.613980660548145    0.883977105421310    0.672748855323782  0.0000
  O3     O3        0.897665134277388    0.821044984722368    0.649370446421171  0.0000
  O3     O3        0.588769826835843    0.211844886331585    0.618394500653539  0.0000
  O2     O2        0.116691370205551    0.883606180739901    0.342312078050322  0.0000
  O3     O3        0.385074164261838    0.176324497700900    0.394144363879092  0.0000
  O3     O3        0.987270248745280    0.970683002391503    0.466366646550604  0.0000
  O3     O3        0.513841065832882    0.975327612447255    0.494927196450008  0.0000
  O2     O2        0.999491781240144    0.033960284477506    0.218508004254221  0.0000
  O3     O3        0.497799657723299    0.041153455667687    0.230118445960141  0.0000
  O3     O3        0.028897757226913    0.023611971286904    0.721598693251597  0.0000
  O2     O2        0.478633509989065    0.032013135598011    0.737528214625479  0.0000
  O2     O2        0.622525341342346    0.141710639058728    0.110643179107895  0.0000
  O3     O3        0.914509047518776    0.783350307528419    0.126487274168001  0.0000
  O2     O2        0.380190937406033    0.114615732316730    0.921272037204914  0.0000
  O2     O2        0.116938921944533    0.831926364908079    0.873206652200273  0.0000
  O3     O3        0.410896060167998    0.787771232242200    0.874068441686907  0.0000
  O2     O2        0.109678027968083    0.178508201872293    0.892433368587682  0.0000
  O3     O3        0.604342412467225    0.811569305368932    0.151107856869570  0.0000
  O2     O2        0.871950480112596    0.107708971872686    0.090919213533952  0.0000
  O2     O2        0.517118427248628    0.974613157319480    0.981549403948476  0.0000
  O2     O2        0.991488000430007    0.986242342846002    0.965326043936118  0.0000
  O3     O3        0.129026593223001    0.545882348239653    0.308000621837676  0.0000
  O2     O2        0.359779021019957    0.494800719500711    0.302800599112560  0.0000
  O2     O2        0.859997194771437    0.503401352279879    0.707799226945688  0.0000
  O3     O3        0.631367273069964    0.544837184085451    0.705430889562030  0.0000
  O3     O3        0.243461219530693    0.288586656799497    0.349254886730632  0.0000
  O2     O2        0.252376836473980    0.740302299930427    0.313560046039833  0.0000
  O3     O3        0.747821854009683    0.288906123821229    0.659182593541436  0.0000
  O2     O2        0.751737357950339    0.746243963923808    0.687594690550372  0.0000
  O3     O3        0.143576289760001    0.260475238344749    0.133434608116647  0.0000
  O3     O3        0.359031558493517    0.749440572238160    0.129360625387528  0.0000
  O2     O2        0.846140961297165    0.220809406976567    0.851515563009277  0.0000
  O3     O3        0.665695700005624    0.758247522471176    0.896199926781679  0.0000
  O3     O3        0.847334976977393    0.748401483043809    0.884802905222979  0.0000
  O3     O3        0.640998718610543    0.246655164774948    0.867895018766176  0.0000
  O2     O2        0.159652853067110    0.759708978264580    0.113300997620480  0.0000
  O2     O2        0.338314441890385    0.223583572487383    0.153911594970615  0.0000
  O3     O3        0.623918951362294    0.478223579351474    0.057244768070728  0.0000
  O3     O3        0.879820821223261    0.446864694784876    0.038818740379287  0.0000
  O3     O3        0.374709973308741    0.452564927464261    0.969195698789676  0.0000
  O2     O2        0.134438889881048    0.504796084061427    0.950306533628385  0.0000
  O2     O2        0.749067876724319    0.305326120881311    0.039015370037942  0.0000
  O1     O1        0.757802159544593    0.684379828133311    0.110265861642327  0.0000
  O2     O2        0.248916378586759    0.276130421019642    0.949943720813841  0.0000
  O3     O3        0.255455762453873    0.702034254908991    0.918770667638262  0.0000
