data_POSCAR_N0011.vasp
_audit_creation_method             Generated by GULP
_audit_author_name                 Salvador R. G. Balestra
_symmetry_space_group_name_H-M     'P 1             '
_symmetry_Int_Tables_number        1

loop_
_symmetry_equiv_pos_site_id
_symmetry_equiv_pos_as_xyz
_cell_length_a                       17.3710
_cell_length_b                        7.7342
_cell_length_c                       10.3084
_cell_angle_alpha                   91.0129
_cell_angle_beta                    89.8618
_cell_angle_gamma                   90.7386

loop_
_atom_site_label
_atom_site_type_symbol
_atom_site_fract_x
_atom_site_fract_y
_atom_site_fract_z
_atom_site_charge
  Ge     Ge        0.052090000000021    0.000000000000000    0.372269999999958  0.0000
  Ge     Ge        0.452666775525774    0.009807764930223    0.366732186673499  0.0000
  Ge     Ge        0.951248721996817    0.005032955983374    0.635985238194815  0.0000
  Ge     Ge        0.551177722953639    0.987230176973935    0.634505956038503  0.0000
  Ge     Ge        0.160537134437751    0.311832448757960    0.316528603350718  0.0000
  Ge     Ge        0.845670972195343    0.314455027857130    0.717522428318660  0.0000
  Ge     Ge        0.345220208229366    0.317975712235130    0.310737480157381  0.0000
  Ge     Ge        0.835934708129911    0.674652995410984    0.059270919607076  0.0000
  Ge     Ge        0.154618326121154    0.654557416240843    0.969384169522364  0.0000
  Ge     Ge        0.342549060516188    0.662503902302352    0.964298993722077  0.0000
  Ge     Ge        0.653184039901151    0.649919643435565    0.055853708421032  0.0000
  Si     Si        0.554753753189843    0.965548418298582    0.108713171068427  0.0000
  Si     Si        0.944730043445510    0.979443574379261    0.117619258478874  0.0000
  Si     Si        0.439925628615882    0.972075500919513    0.873143394183501  0.0000
  Si     Si        0.057793149810525    0.960876361492744    0.881035746755046  0.0000
  Si     Si        0.343070913190382    0.710764102409376    0.265962036148937  0.0000
  Si     Si        0.656669803386500    0.685909471602627    0.747774776705179  0.0000
  Si     Si        0.832418713886378    0.718894796107049    0.751562073529716  0.0000
  Si     Si        0.663972807642663    0.287347701221168    0.717551407344901  0.0000
  Si     Si        0.159490896579798    0.703659864897945    0.270936036714090  0.0000
  Si     Si        0.664099263245830    0.254797059006040    0.017184480789913  0.0000
  Si     Si        0.339703325020746    0.264708062188854    0.004124543749443  0.0000
  Si     Si        0.160699016976956    0.257307161760910    0.009546857128583  0.0000
  Si     Si        0.844914610960880    0.278011563225265    0.020863626474915  0.0000
  O1     O1        0.098850486590488    0.191154026606156    0.408629288315415  0.0000
  O3     O3        0.377679231689803    0.858859182182596    0.356882621089452  0.0000
  O1     O1        0.909268138009507    0.204216241404467    0.622794282894022  0.0000
  O3     O3        0.598762856269976    0.800780047952550    0.669685662500486  0.0000
  O3     O3        0.878916196023133    0.862499795357185    0.675850319807728  0.0000
  O3     O3        0.610826119146421    0.167692558142608    0.627668116655441  0.0000
  O3     O3        0.125180090114941    0.849017540681068    0.363150372717354  0.0000
  O1     O1        0.408088995694770    0.201701694412115    0.400556719183484  0.0000
  O1     O1        0.986743390775974    0.945132115466562    0.487135950645706  0.0000
  O1     O1        0.517230026736403    0.954311870821141    0.480533430697799  0.0000
  O3     O3        0.006735341978656    0.021812623440046    0.225021427804898  0.0000
  O3     O3        0.499637308651302    0.031082152686429    0.219986619443780  0.0000
  O3     O3        0.028453925760351    0.011208027386028    0.740768877773086  0.0000
  O3     O3        0.472929139203892    0.022874934734791    0.734318377796912  0.0000
  O2     O2        0.628165311876634    0.097033313422512    0.096617157451136  0.0000
  O3     O3        0.896173722322381    0.807759158253668    0.150406074305668  0.0000
  O2     O2        0.378688079962492    0.115005401967346    0.918641189683098  0.0000
  O3     O3        0.096819569704934    0.774072459389345    0.869935938570153  0.0000
  O3     O3        0.397902695125082    0.786314546888044    0.861332571152952  0.0000
  O2     O2        0.120548601097527    0.102852452951875    0.928525928700235  0.0000
  O3     O3        0.587566507486644    0.777168439143217    0.139245696060519  0.0000
  O2     O2        0.886035105617077    0.139798330258264    0.110562873180851  0.0000
  O2     O2        0.511394573245580    0.962695018534087    0.971085190236860  0.0000
  O2     O2        0.985047253222068    0.950991192948904    0.977675931614199  0.0000
  O3     O3        0.124971006403859    0.518574459535587    0.310705300716322  0.0000
  O3     O3        0.379167649836149    0.527969360501049    0.302619917029809  0.0000
  O3     O3        0.868155303652362    0.531581242673834    0.720851612581275  0.0000
  O2     O2        0.635021138210276    0.484525008133200    0.719684079902006  0.0000
  O1     O1        0.253344773798530    0.303188371498707    0.371359237370425  0.0000
  O2     O2        0.251463820621633    0.679512042084996    0.284021402784272  0.0000
  O3     O3        0.751486358026452    0.280578054154681    0.669090766034646  0.0000
  O2     O2        0.744296783175443    0.719829513702031    0.700051408501893  0.0000
  O3     O3        0.156929454867146    0.219919180022536    0.160889280987659  0.0000
  O3     O3        0.358119706395863    0.755200511218798    0.116656237941761  0.0000
  O3     O3        0.858457470529162    0.231113318070901    0.871323378809144  0.0000
  O3     O3        0.652195857595019    0.726614598147939    0.899624455592540  0.0000
  O3     O3        0.832249819974595    0.755848143891970    0.904454515386884  0.0000
  O2     O2        0.656806767531092    0.213007531073784    0.863534604783023  0.0000
  O3     O3        0.141742988170501    0.745765079937277    0.122524919729811  0.0000
  O3     O3        0.346559755481689    0.226142778293455    0.155003982246983  0.0000
  O3     O3        0.624116549488137    0.434480120611509    0.055778458557929  0.0000
  O3     O3        0.875124105182152    0.470018746347498    0.055056770363806  0.0000
  O3     O3        0.374765491522909    0.451655128262583    0.969279539407402  0.0000
  O3     O3        0.123770440457168    0.440771987620611    0.975391007625460  0.0000
  O2     O2        0.753679002565129    0.280273088377925    0.052784881532745  0.0000
  O1     O1        0.743939677221228    0.672474687216415    0.119146367166179  0.0000
  O2     O2        0.249739460424216    0.272774351025497    0.965328873367582  0.0000
  O1     O1        0.248191348183543    0.670180907165042    0.919082177378864  0.0000
