data_POSCAR_N0017.vasp
_audit_creation_method             Generated by GULP
_audit_author_name                 Salvador R. G. Balestra
_symmetry_space_group_name_H-M     'P 1             '
_symmetry_Int_Tables_number        1

loop_
_symmetry_equiv_pos_site_id
_symmetry_equiv_pos_as_xyz
_cell_length_a                       17.6318
_cell_length_b                        7.7895
_cell_length_c                       10.1591
_cell_angle_alpha                   89.7863
_cell_angle_beta                    89.7785
_cell_angle_gamma                   91.1554

loop_
_atom_site_label
_atom_site_type_symbol
_atom_site_fract_x
_atom_site_fract_y
_atom_site_fract_z
_atom_site_charge
  Ge     Ge        0.052090000000021    0.000000000000000    0.372269999999958  0.0000
  Ge     Ge        0.445387845078990    0.052313906287056    0.331289868694913  0.0000
  Ge     Ge        0.943258401456076    0.035859901490537    0.624208845161727  0.0000
  Ge     Ge        0.550873123958974    0.004917042299558    0.585445032535790  0.0000
  Ge     Ge        0.552230183329862    0.988476990226998    0.077736603300858  0.0000
  Ge     Ge        0.941691780421039    0.044926013595106    0.127660199362917  0.0000
  Ge     Ge        0.443680508252050    0.049610338407884    0.833289946826086  0.0000
  Ge     Ge        0.049542518222237    0.994040663312684    0.877762145399173  0.0000
  Ge     Ge        0.169946033306207    0.296509917439424    0.264075481812952  0.0000
  Ge     Ge        0.323911060671562    0.760929638740840    0.264099262485064  0.0000
  Ge     Ge        0.845750436402246    0.354058175559647    0.693149354482717  0.0000
  Ge     Ge        0.645989466061692    0.687119150884594    0.702996375771798  0.0000
  Ge     Ge        0.672341965311391    0.284442249459055    0.010370175385348  0.0000
  Ge     Ge        0.825317560614390    0.749390560925394    0.006865642965991  0.0000
  Ge     Ge        0.352470948359255    0.364593177344117    0.955914536073561  0.0000
  Ge     Ge        0.152068099845386    0.683256149927542    0.940957227833747  0.0000
  Ge     Ge        0.173344526921489    0.279941466608685    0.946493081371857  0.0000
  Si     Si        0.824057077198853    0.752271883266553    0.694942647736638  0.0000
  Si     Si        0.667836546993092    0.289112483411881    0.699281457345751  0.0000
  Si     Si        0.147600048052729    0.691374994962458    0.257411129343084  0.0000
  Si     Si        0.348262575089941    0.364631824366656    0.266997006182534  0.0000
  Si     Si        0.326192525891155    0.765796817820447    0.950902281761533  0.0000
  Si     Si        0.648797341500717    0.680376043007607    0.015436882630423  0.0000
  Si     Si        0.849488512001336    0.349717538549615    0.004842952653951  0.0000
  O1     O1        0.123054216137118    0.152761180683233    0.363582302970507  0.0000
  O1     O1        0.374346754911727    0.900194772522190    0.359130836935504  0.0000
  O1     O1        0.905727420779427    0.236168378811155    0.599418971592042  0.0000
  O1     O1        0.582199818548728    0.800606037457894    0.615067615269940  0.0000
  O3     O3        0.870053718897963    0.886034247367036    0.604176646835372  0.0000
  O3     O3        0.623848267704622    0.150285326796356    0.611935823566550  0.0000
  O3     O3        0.083135307830438    0.799142107960878    0.328229319920586  0.0000
  O3     O3        0.406213358139044    0.253142282577529    0.351792775862342  0.0000
  O1     O1        0.021667829812277    0.992775861684256    0.534009259271575  0.0000
  O1     O1        0.524404177660837    0.022429766267687    0.423056643489005  0.0000
  O1     O1        0.971091207541530    0.050328954331212    0.288512931367805  0.0000
  O1     O1        0.474163621559248    0.024353502250539    0.170315823680314  0.0000
  O1     O1        0.971927351333799    0.031644120299655    0.786452477360064  0.0000
  O1     O1        0.468909775125187    0.044530909160482    0.670024276563590  0.0000
  O1     O1        0.622393885151402    0.142498092328393    0.104593782383032  0.0000
  O1     O1        0.871622450269290    0.891089754126408    0.105629621632474  0.0000
  O1     O1        0.418927277761092    0.256958299008106    0.869231856260950  0.0000
  O1     O1        0.086511820776887    0.792896046895859    0.854714748167121  0.0000
  O3     O3        0.370407394072379    0.903445798622345    0.861533807885056  0.0000
  O1     O1        0.122789913536582    0.139380498504211    0.851909020088097  0.0000
  O3     O3        0.590892805580506    0.787379495574952    0.103188349956517  0.0000
  O3     O3        0.909859569494081    0.247869935765058    0.089483953035038  0.0000
  O1     O1        0.523961531546762    0.997028350635156    0.916118149708433  0.0000
  O1     O1        0.021512544795144    0.999498184588120    0.040493719438192  0.0000
  O3     O3        0.154049901739277    0.502899372165655    0.320945991793235  0.0000
  O3     O3        0.339872411025906    0.554749153574762    0.322730558842833  0.0000
  O3     O3        0.839784108321797    0.562424980453808    0.639343897253145  0.0000
  O3     O3        0.651285635637624    0.479364884120334    0.645072430788772  0.0000
  O3     O3        0.266913949206559    0.265901471285952    0.264705282507473  0.0000
  O3     O3        0.227475396760617    0.795604710668212    0.271438064660002  0.0000
  O3     O3        0.757095032331151    0.255725101202284    0.692477921939146  0.0000
  O3     O3        0.734798911087432    0.785696339694682    0.692078931663064  0.0000
  O1     O1        0.139598239161938    0.264552949974272    0.106119823692034  0.0000
  O3     O3        0.353349085410268    0.781495008339301    0.101669200808718  0.0000
  O3     O3        0.877334128920667    0.356941361930202    0.854188476518360  0.0000
  O3     O3        0.618648648856333    0.674409111703130    0.865676021440376  0.0000
  O3     O3        0.854475721641840    0.769910985447157    0.844640464597944  0.0000
  O3     O3        0.639885248490019    0.271055188849491    0.849921499763715  0.0000
  O3     O3        0.127274467796377    0.660894524804295    0.105696265888347  0.0000
  O3     O3        0.380153194668399    0.376305628515157    0.118433373883769  0.0000
  O3     O3        0.657386768987201    0.489879698965238    0.070318823676675  0.0000
  O3     O3        0.842043421697208    0.541467910761243    0.059283389595566  0.0000
  O3     O3        0.340904086980379    0.572374209012736    0.900202470793090  0.0000
  O1     O1        0.160078398146505    0.482156001912738    0.881159177797949  0.0000
  O3     O3        0.768439766023620    0.249089571443355    0.013353571776048  0.0000
  O3     O3        0.729234006814752    0.783045447392944    0.014232615703276  0.0000
  O1     O1        0.268984150639731    0.248598149988398    0.944404446140713  0.0000
  O3     O3        0.237077226691937    0.799949322311492    0.940492606427438  0.0000
