data_POSCAR_N0016.vasp
_audit_creation_method             Generated by GULP
_audit_author_name                 Salvador R. G. Balestra
_symmetry_space_group_name_H-M     'P 1             '
_symmetry_Int_Tables_number        1

loop_
_symmetry_equiv_pos_site_id
_symmetry_equiv_pos_as_xyz
_cell_length_a                       17.6040
_cell_length_b                        7.7940
_cell_length_c                       10.1752
_cell_angle_alpha                   90.3435
_cell_angle_beta                    90.0744
_cell_angle_gamma                   91.3471

loop_
_atom_site_label
_atom_site_type_symbol
_atom_site_fract_x
_atom_site_fract_y
_atom_site_fract_z
_atom_site_charge
  Ge     Ge        0.052090000000021    0.000000000000000    0.372269999999958  0.0000
  Ge     Ge        0.446280050731909    0.050658127332437    0.417147626937551  0.0000
  Ge     Ge        0.946459405164471    0.043584866157385    0.626536334358204  0.0000
  Ge     Ge        0.552145433674838    0.008446510512297    0.671260476503944  0.0000
  Ge     Ge        0.557761237908488    0.005450342203818    0.174021327569425  0.0000
  Ge     Ge        0.947100578163027    0.062281770668721    0.117386600575317  0.0000
  Ge     Ge        0.446648216477326    0.045847948121152    0.927879078988184  0.0000
  Ge     Ge        0.056299746477953    0.003316977093210    0.871587160349333  0.0000
  Ge     Ge        0.172929864665560    0.292186327476168    0.303401353434208  0.0000
  Ge     Ge        0.327569955081308    0.752483836896766    0.302742030111658  0.0000
  Ge     Ge        0.850328125798371    0.360008182619736    0.744296043642784  0.0000
  Ge     Ge        0.651409279490380    0.693632242280261    0.738433232140083  0.0000
  Ge     Ge        0.673096848207281    0.301088311863253    0.051544326876990  0.0000
  Ge     Ge        0.826573024042507    0.765371224695471    0.051680768493516  0.0000
  Ge     Ge        0.348249169251657    0.362710711118728    0.989237261237263  0.0000
  Ge     Ge        0.149270626397817    0.689088241109595    0.994409230795253  0.0000
  Si     Si        0.829635093679969    0.758104069268693    0.741002270224959  0.0000
  Si     Si        0.671788747223137    0.295013783764839    0.740645825587061  0.0000
  Si     Si        0.149783789145593    0.690166960679297    0.305985798927330  0.0000
  Si     Si        0.350796255043538    0.355167133039724    0.301239703660817  0.0000
  Si     Si        0.327062112566832    0.758639467868766    0.991175460327163  0.0000
  Si     Si        0.171037211665143    0.290026676651385    0.992122493912593  0.0000
  Si     Si        0.649049684373395    0.700197068323210    0.049889270740608  0.0000
  Si     Si        0.850183035580973    0.369703481430341    0.055784911964209  0.0000
  O1     O1        0.122749634183748    0.153777263202365    0.399849451847440  0.0000
  O1     O1        0.376376716025648    0.895765243061911    0.398229279286113  0.0000
  O1     O1        0.913678003316255    0.246450450057746    0.655383351057220  0.0000
  O1     O1        0.591304468543756    0.810260373349655    0.645152699334984  0.0000
  O3     O3        0.874302510639236    0.895449354164033    0.653097095432752  0.0000
  O3     O3        0.624619618519403    0.161139922128275    0.651736153226587  0.0000
  O3     O3        0.090972732317071    0.799079478749337    0.390873824063658  0.0000
  O3     O3        0.412277299171626    0.251289014527050    0.382528628056220  0.0000
  O1     O1        0.972792947588447    0.027052678990229    0.464072072113401  0.0000
  O1     O1        0.474194731250822    0.049147219201420    0.579755261524410  0.0000
  O1     O1        0.024486270552758    0.028702760262919    0.211188837719903  0.0000
  O1     O1        0.528520173194292    0.005875409221351    0.334918692914034  0.0000
  O1     O1        0.029306553633783    0.007953617439910    0.709584120535383  0.0000
  O1     O1        0.522874141664361    0.007240545440172    0.833057137059763  0.0000
  O1     O1        0.627966845987777    0.158933470388414    0.151496626363715  0.0000
  O1     O1        0.876619859131648    0.908349691736898    0.144820012982235  0.0000
  O1     O1        0.409058585359226    0.245029530769091    0.898645872601896  0.0000
  O1     O1        0.086002587568576    0.798967690312690    0.904345201508952  0.0000
  O3     O3        0.373597795617485    0.894647505350977    0.905256403464796  0.0000
  O3     O3        0.129058294907650    0.150436954425059    0.901065638745056  0.0000
  O3     O3        0.589353876510557    0.802536620687422    0.136075132790600  0.0000
  O3     O3        0.908503121730899    0.263245058177387    0.142169781983960  0.0000
  O1     O1        0.477216367992204    0.049162664718398    0.088285302612588  0.0000
  O1     O1        0.975613901491242    0.049026330486275    0.956124268341828  0.0000
  O3     O3        0.157219435751251    0.499421439016606    0.359655852141619  0.0000
  O3     O3        0.343246752802461    0.546429662737869    0.358369663224116  0.0000
  O3     O3        0.844922622719912    0.567402634715385    0.686637749744950  0.0000
  O3     O3        0.656682037986755    0.484768591033668    0.685380041550375  0.0000
  O3     O3        0.269234996489690    0.255957894076995    0.309816950772061  0.0000
  O3     O3        0.231429370689198    0.788861390008085    0.309347088191091  0.0000
  O3     O3        0.761189489188609    0.261239981506123    0.736148418172723  0.0000
  O3     O3        0.740330333818451    0.792201609332511    0.735744469389411  0.0000
  O3     O3        0.142117122101199    0.273608634502554    0.141809928082695  0.0000
  O3     O3        0.356895224848280    0.772076697248711    0.141399530628448  0.0000
  O3     O3        0.879598762246463    0.373321595932089    0.905676956451211  0.0000
  O3     O3        0.620655246521535    0.692122879143127    0.899976254018984  0.0000
  O3     O3        0.858338693356776    0.777015435642349    0.890835894521680  0.0000
  O3     O3        0.642108870619575    0.278236630384882    0.890775093070724  0.0000
  O3     O3        0.120130826589846    0.685346421706758    0.156038867768779  0.0000
  O3     O3        0.377971129055336    0.368151657403986    0.151356914494285  0.0000
  O3     O3        0.656512435431735    0.508749003106523    0.104278598358887  0.0000
  O3     O3        0.842159021324449    0.560248574117197    0.110783077293321  0.0000
  O3     O3        0.342332711536555    0.569132708688312    0.933280753574788  0.0000
  O3     O3        0.154482010496405    0.480262955201962    0.938924492802509  0.0000
  O3     O3        0.769287882656425    0.267940741879297    0.055917851852257  0.0000
  O3     O3        0.730414431844952    0.800525758464471    0.056730436226447  0.0000
  O3     O3        0.260420149664624    0.259581516192286    0.987800148473425  0.0000
  O3     O3        0.237663484245425    0.790611629029903    0.986452965079346  0.0000
