data_POSCAR_N0019.vasp
_audit_creation_method             Generated by GULP
_audit_author_name                 Salvador R. G. Balestra
_symmetry_space_group_name_H-M     'P 1             '
_symmetry_Int_Tables_number        1

loop_
_symmetry_equiv_pos_site_id
_symmetry_equiv_pos_as_xyz
_cell_length_a                       17.6196
_cell_length_b                        7.8123
_cell_length_c                       10.1816
_cell_angle_alpha                   90.4784
_cell_angle_beta                    90.3025
_cell_angle_gamma                   91.3918

loop_
_atom_site_label
_atom_site_type_symbol
_atom_site_fract_x
_atom_site_fract_y
_atom_site_fract_z
_atom_site_charge
  Ge     Ge        0.052090000000021    0.000000000000000    0.372269999999958  0.0000
  Ge     Ge        0.441761671474836    0.054355880440649    0.328037944256272  0.0000
  Ge     Ge        0.940921000115976    0.042758514282165    0.616411420063010  0.0000
  Ge     Ge        0.544809019292507    0.998969440691676    0.584475163913909  0.0000
  Ge     Ge        0.546850769402736    0.990461748616500    0.073960492992142  0.0000
  Ge     Ge        0.939593082194890    0.050503805559647    0.128674185443959  0.0000
  Ge     Ge        0.436903399544879    0.044448501719293    0.829075001377708  0.0000
  Ge     Ge        0.042516358693830    0.986074540225489    0.874783900972889  0.0000
  Ge     Ge        0.167494101832145    0.295948256901152    0.261026067712951  0.0000
  Ge     Ge        0.320899437272902    0.761123973771970    0.258745998957074  0.0000
  Ge     Ge        0.841320653515784    0.357432699829401    0.686772064077394  0.0000
  Ge     Ge        0.637095611126650    0.681752659335181    0.699930379701759  0.0000
  Ge     Ge        0.817688702992737    0.759489434416024    0.688694702341255  0.0000
  Ge     Ge        0.667566316782970    0.286761674019432    0.010516028132165  0.0000
  Ge     Ge        0.819829715299774    0.764636687568535    0.007416697810753  0.0000
  Ge     Ge        0.346550285500157    0.360880746828539    0.951965313451679  0.0000
  Ge     Ge        0.145586948558685    0.678522124909838    0.938713867952216  0.0000
  Ge     Ge        0.166602765684956    0.275467858406625    0.945003765880120  0.0000
  Ge     Ge        0.847970646995144    0.362305662728653    0.008021753047287  0.0000
  Si     Si        0.663866424018708    0.283709823501088    0.699231218909305  0.0000
  Si     Si        0.144111672689077    0.689770437559283    0.254164881046539  0.0000
  Si     Si        0.346208129430630    0.366595424069043    0.261649230897741  0.0000
  Si     Si        0.320593793449690    0.760562200369776    0.946380262109384  0.0000
  Si     Si        0.642899018367128    0.682292496455535    0.009570785590474  0.0000
  O1     O1        0.123416051862707    0.151683584632848    0.361529480018016  0.0000
  O1     O1        0.370085198364789    0.903660041607522    0.354591774341494  0.0000
  O1     O1        0.903509499935364    0.241664996365246    0.595144059408707  0.0000
  O1     O1        0.571350264053827    0.791984151183282    0.612867000832167  0.0000
  O1     O1        0.867704036376694    0.897196814773108    0.590600287020169  0.0000
  O3     O3        0.619207679329709    0.141679505493744    0.613716226144903  0.0000
  O3     O3        0.081494933721727    0.797947046637656    0.329152912961215  0.0000
  O3     O3        0.403971229113639    0.256354828717154    0.346905026060675  0.0000
  O1     O1        0.021850883614396    0.000328164370333    0.533092142278806  0.0000
  O1     O1        0.520083652083069    0.023205700736676    0.421698929929446  0.0000
  O1     O1        0.970626707932581    0.049002764113343    0.288769170818619  0.0000
  O1     O1        0.469228773743101    0.022520736909992    0.167514926916745  0.0000
  O1     O1        0.966026147795914    0.027627725312833    0.781126448318994  0.0000
  O1     O1        0.462586647561674    0.040913384295474    0.666829672356861  0.0000
  O1     O1        0.614920869700247    0.149205128793267    0.102890302112302  0.0000
  O1     O1        0.860678512075143    0.919754468980099    0.104775684032342  0.0000
  O1     O1        0.411476879608476    0.251144596310561    0.864464177402845  0.0000
  O1     O1        0.080212681909473    0.786179562280861    0.850984534541463  0.0000
  O3     O3        0.364059559881766    0.897045060652280    0.856679289539369  0.0000
  O1     O1        0.115661730451824    0.132713275877589    0.851480374643819  0.0000
  O3     O3        0.586752995398237    0.791465519830573    0.098677888498881  0.0000
  O1     O1        0.916495724522202    0.257100291164732    0.091455524966191  0.0000
  O1     O1        0.517595687701321    0.995220685109809    0.912733603648283  0.0000
  O1     O1        0.014510484774764    0.985265003821819    0.036746461678470  0.0000
  O3     O3        0.151065746096207    0.502495559518759    0.316810025266205  0.0000
  O3     O3        0.338347081404140    0.557048459337345    0.317280583617412  0.0000
  O1     O1        0.832326373396487    0.557076347350967    0.625778274599183  0.0000
  O3     O3        0.647915214982876    0.473221626087023    0.644359773485905  0.0000
  O3     O3        0.264476262659624    0.268410718014388    0.258642766149970  0.0000
  O3     O3        0.224374996462926    0.793494632018987    0.265763212487643  0.0000
  O3     O3        0.753452892044793    0.250758553897924    0.693549892684226  0.0000
  O1     O1        0.722054703867665    0.792079211190901    0.686156130104006  0.0000
  O1     O1        0.134073578432465    0.260889774156137    0.104687366210087  0.0000
  O3     O3        0.349213442504209    0.778856012373952    0.096475883734078  0.0000
  O1     O1        0.873342544514773    0.375549430901828    0.845995039210762  0.0000
  O3     O3        0.609496062404251    0.666680526034440    0.862016315453349  0.0000
  O1     O1        0.851204445369356    0.777748164133667    0.848118225721463  0.0000
  O3     O3        0.636202224881543    0.270000890428410    0.849126999126418  0.0000
  O3     O3        0.121039616274289    0.660412146617220    0.103200833858231  0.0000
  O3     O3        0.377049207225950    0.375686764363976    0.113254724574509  0.0000
  O3     O3        0.655120717857464    0.495653520516051    0.067184870869647  0.0000
  O1     O1        0.840107734243373    0.566350868818295    0.068555976583920  0.0000
  O3     O3        0.334762250970784    0.566943655659803    0.895810773907310  0.0000
  O1     O1        0.152233154021298    0.476006217554120    0.880486185272554  0.0000
  O1     O1        0.762411208613897    0.250586456305824    0.020436269893606  0.0000
  O3     O3        0.722581329876449    0.787788086781102    0.000667881746618  0.0000
  O1     O1        0.262381145757625    0.246064795631098    0.942943390316431  0.0000
  O3     O3        0.231226574016243    0.793311145035101    0.937459630697072  0.0000
