data_POSCAR_N0018.vasp
_audit_creation_method             Generated by GULP
_audit_author_name                 Salvador R. G. Balestra
_symmetry_space_group_name_H-M     'P 1             '
_symmetry_Int_Tables_number        1

loop_
_symmetry_equiv_pos_site_id
_symmetry_equiv_pos_as_xyz
_cell_length_a                       17.6549
_cell_length_b                        7.8325
_cell_length_c                       10.1779
_cell_angle_alpha                   90.5242
_cell_angle_beta                    90.0087
_cell_angle_gamma                   88.3918

loop_
_atom_site_label
_atom_site_type_symbol
_atom_site_fract_x
_atom_site_fract_y
_atom_site_fract_z
_atom_site_charge
  Ge     Ge        0.052090000000021    0.000000000000000    0.372269999999958  0.0000
  Ge     Ge        0.447068259404340    0.962505482807117    0.372035655803348  0.0000
  Ge     Ge        0.947816266821001    0.935038733376223    0.623708477112651  0.0000
  Ge     Ge        0.552258670246551    0.989221752752216    0.628049687801274  0.0000
  Ge     Ge        0.552339733278870    0.001544361781840    0.115230596276700  0.0000
  Ge     Ge        0.945741556726980    0.961884543003270    0.117334697190995  0.0000
  Ge     Ge        0.440889833521737    0.955968596950144    0.870699763718130  0.0000
  Ge     Ge        0.054192596526373    0.011211439587776    0.869549967590394  0.0000
  Ge     Ge        0.150204276587876    0.314754257822115    0.303155364366218  0.0000
  Ge     Ge        0.347906987334951    0.647523108772374    0.308845932517844  0.0000
  Ge     Ge        0.825126049810752    0.226505764927899    0.746519481941141  0.0000
  Ge     Ge        0.670236091524647    0.690578578674959    0.735612053701082  0.0000
  Ge     Ge        0.852725877087607    0.627339392787433    0.732205983604006  0.0000
  Ge     Ge        0.650768530822939    0.316311352267000    0.060541017616186  0.0000
  Ge     Ge        0.848445975682477    0.644806063062243    0.049645075575177  0.0000
  Ge     Ge        0.325941894216120    0.255705211628521    0.988489807971574  0.0000
  Ge     Ge        0.173337697302064    0.725880339423081    0.997716467759012  0.0000
  Ge     Ge        0.143736279679773    0.325220379884761    0.986211573531632  0.0000
  Si     Si        0.648324899978677    0.293020548750793    0.747838878353776  0.0000
  Si     Si        0.170159407142286    0.708561804510476    0.310645768630308  0.0000
  Si     Si        0.329466803420843    0.250859140356767    0.297828536365187  0.0000
  Si     Si        0.350372134690269    0.653962486351843    0.997794798346296  0.0000
  Si     Si        0.669544036113706    0.710368157915672    0.045015888919795  0.0000
  Si     Si        0.827697367633765    0.252996266182831    0.060597193598307  0.0000
  O1     O1        0.094012236759354    0.192728211010416    0.399042554826678  0.0000
  O1     O1        0.407853985515127    0.766627981480597    0.400255921666289  0.0000
  O1     O1        0.871193157274587    0.063042418691126    0.667737982791856  0.0000
  O1     O1        0.619152455219916    0.827513399828841    0.638687216737964  0.0000
  O1     O1        0.918979594670272    0.729623057755177    0.640540674635280  0.0000
  O3     O3        0.586902752979443    0.186628119354667    0.669222873407868  0.0000
  O3     O3        0.120972716084855    0.840929180603732    0.397813357986763  0.0000
  O3     O3        0.374591146438345    0.116393889170705    0.387227711920549  0.0000
  O1     O1        0.972667749802058    0.970028509631213    0.462593841944567  0.0000
  O1     O1        0.523851306256902    0.001775766305906    0.465845808013877  0.0000
  O1     O1        0.023674575399584    0.994963706400417    0.209970246492999  0.0000
  O1     O1        0.477390577191868    0.959038433047484    0.211006396229890  0.0000
  O1     O1        0.029024457320405    0.981750813669593    0.708286997384414  0.0000
  O1     O1        0.470250336689080    0.946124927493408    0.709965398438183  0.0000
  O1     O1        0.589666146216639    0.199410725764298    0.148835943716704  0.0000
  O1     O1        0.904632265416943    0.768546884042991    0.145141830840390  0.0000
  O1     O1        0.372088211897067    0.113353054338219    0.887788730908189  0.0000
  O1     O1        0.132255458248709    0.887723811124577    0.911872088918406  0.0000
  O3     O3        0.409711432314447    0.756064179953467    0.912944467230647  0.0000
  O1     O1        0.078397577646808    0.220116763864426    0.893987695813315  0.0000
  O3     O3        0.626193881907789    0.851622710264984    0.131970175736832  0.0000
  O3     O3        0.876790170080297    0.120443884844764    0.145156311360768  0.0000
  O1     O1        0.520997945353061    0.004259064188784    0.955849564402808  0.0000
  O1     O1        0.975348018744758    0.958030774649818    0.956215638044439  0.0000
  O3     O3        0.156562112400071    0.519182792772063    0.365136409032409  0.0000
  O3     O3        0.343726706455268    0.438768914915385    0.358191836639527  0.0000
  O1     O1        0.846056885272014    0.419535821123900    0.679007095294676  0.0000
  O3     O3        0.657403647914002    0.479829595893412    0.686982344607537  0.0000
  O3     O3        0.240121625955493    0.219839074385174    0.294311096200895  0.0000
  O3     O3        0.258789516265360    0.745463035894000    0.317398060400012  0.0000
  O3     O3        0.729060245157458    0.191117270153071    0.740701138375964  0.0000
  O1     O1        0.764727401922346    0.727398414225719    0.721842864053294  0.0000
  O1     O1        0.114197912149360    0.322312132211325    0.147270091173495  0.0000
  O3     O3        0.378658438230189    0.644256532363171    0.147475400717169  0.0000
  O3     O3        0.854008872238469    0.239204158350607    0.908831468292822  0.0000
  O3     O3        0.638323758709706    0.717314005112175    0.895811194699425  0.0000
  O1     O1        0.883009320686423    0.633995928736764    0.892718812877908  0.0000
  O3     O3        0.622514370921397    0.313674932611726    0.898050899955741  0.0000
  O3     O3        0.142683255764025    0.721719652244440    0.159487014829071  0.0000
  O3     O3        0.359604030844077    0.234322202619317    0.147956999185702  0.0000
  O3     O3        0.654764684437205    0.526206670452420    0.109684241101809  0.0000
  O3     O3        0.842525962191583    0.443448630588681    0.114533679616026  0.0000
  O3     O3        0.340781204873162    0.464581715320151    0.940068065545512  0.0000
  O1     O1        0.150292016561829    0.531212184110989    0.932269566123158  0.0000
  O3     O3        0.739334844326448    0.216827310893765    0.070899968473076  0.0000
  O3     O3        0.758792243979807    0.739743995474545    0.038869161253235  0.0000
  O1     O1        0.231177032508782    0.222954918456823    0.978525741894899  0.0000
  O3     O3        0.269637226378112    0.755368919641427    0.995039808093756  0.0000
