data_POSCAR_N0010.vasp
_audit_creation_method             Generated by GULP
_audit_author_name                 Salvador R. G. Balestra
_symmetry_space_group_name_H-M     'P 1             '
_symmetry_Int_Tables_number        1

loop_
_symmetry_equiv_pos_site_id
_symmetry_equiv_pos_as_xyz
_cell_length_a                       17.3288
_cell_length_b                        7.7184
_cell_length_c                       10.2443
_cell_angle_alpha                   90.8629
_cell_angle_beta                    88.8821
_cell_angle_gamma                   88.5302

loop_
_atom_site_label
_atom_site_type_symbol
_atom_site_fract_x
_atom_site_fract_y
_atom_site_fract_z
_atom_site_charge
  Ge     Ge        0.052090000000021    0.000000000000000    0.372269999999958  0.0000
  Ge     Ge        0.454545005011119    0.971682546138199    0.350697342656535  0.0000
  Ge     Ge        0.557769030596338    0.983430610403417    0.612939891129775  0.0000
  Ge     Ge        0.150677336066563    0.316153023067713    0.290665110010927  0.0000
  Ge     Ge        0.844387414413674    0.260057160713263    0.698317298786540  0.0000
  Ge     Ge        0.335735960433017    0.268567819445113    0.289270442445320  0.0000
  Ge     Ge        0.845634392132420    0.636724422168401    0.037148141546518  0.0000
  Ge     Ge        0.167991949514647    0.663982815657516    0.946469938678639  0.0000
  Ge     Ge        0.352242715862932    0.629760445099541    0.948988427425401  0.0000
  Ge     Ge        0.660668107708446    0.654985183003870    0.033170616933038  0.0000
  Si     Si        0.957166984042363    0.959155345110790    0.634164620869127  0.0000
  Si     Si        0.554229913006611    0.969462880967915    0.089227591258570  0.0000
  Si     Si        0.944059626692115    0.943770576461059    0.127162645478858  0.0000
  Si     Si        0.443690454164549    0.942973853811217    0.852131732359930  0.0000
  Si     Si        0.058159370927512    0.966630323348722    0.884301817638173  0.0000
  Si     Si        0.351047263602143    0.666413978735293    0.256265497338823  0.0000
  Si     Si        0.671548200010901    0.685644796302745    0.724460059704715  0.0000
  Si     Si        0.849511780718414    0.665739971991405    0.726144798425943  0.0000
  Si     Si        0.663794869107379    0.284487588379868    0.700291954836473  0.0000
  Si     Si        0.171486270995907    0.713236658528465    0.255063538928354  0.0000
  Si     Si        0.662454004053036    0.258150708972251    0.002626279256078  0.0000
  Si     Si        0.336262573224049    0.230844517689010    0.981887002392307  0.0000
  Si     Si        0.156220049697484    0.269641712536702    0.982594044204123  0.0000
  Si     Si        0.841858529445457    0.238368825015161    0.006563555112989  0.0000
  O1     O1        0.083885064820485    0.208015716266032    0.380958822375237  0.0000
  O3     O3        0.402456887012276    0.784215762466879    0.346211102972447  0.0000
  O3     O3        0.903402274975786    0.126020871587644    0.602343392367149  0.0000
  O3     O3        0.621707183653522    0.814762355062577    0.639930874134710  0.0000
  O2     O2        0.904011464370404    0.791929056072763    0.645433690940122  0.0000
  O3     O3        0.603299490249702    0.180512192338289    0.617483733562301  0.0000
  O3     O3        0.132925895319390    0.873211492149781    0.332857392439267  0.0000
  O1     O1        0.390508853438667    0.139729945889811    0.386426842963580  0.0000
  O3     O3        0.020399878126013    0.928765695357998    0.522170558347298  0.0000
  O1     O1        0.528005540794248    0.954175966517977    0.456330146111698  0.0000
  O3     O3        0.976129446619716    0.983999593519014    0.267953956504828  0.0000
  O3     O3        0.492134157438672    0.021556693211950    0.197826415227930  0.0000
  O2     O2        0.998396349661922    0.999572109170087    0.770571528284670  0.0000
  O3     O3        0.474652587462617    0.984535281817839    0.708616503217548  0.0000
  O2     O2        0.621061631385327    0.111708147599360    0.084612873162491  0.0000
  O3     O3        0.905818530035008    0.757452399797559    0.131347366263144  0.0000
  O2     O2        0.372972430563365    0.074702354315694    0.892817074293441  0.0000
  O3     O3        0.110741211537537    0.797382533008090    0.852980643444342  0.0000
  O3     O3        0.414823641596390    0.747158246916343    0.853710223713676  0.0000
  O2     O2        0.111518968117957    0.133721469010394    0.893756824539019  0.0000
  O3     O3        0.595086047008795    0.785574901435995    0.120277243166203  0.0000
  O2     O2        0.878976829739921    0.088459635419418    0.093540265478728  0.0000
  O2     O2        0.515589994218044    0.964279134606422    0.947477745210242  0.0000
  O2     O2        0.014053854137288    0.940106472751146    0.021839742518173  0.0000
  O3     O3        0.128325885160661    0.535633150946277    0.286237383814158  0.0000
  O3     O3        0.376494579829686    0.469126829751759    0.278632802622857  0.0000
  O3     O3        0.876243150001956    0.469420184443733    0.694702786165385  0.0000
  O2     O2        0.643025970783687    0.489414211277960    0.701372181171743  0.0000
  O1     O1        0.242250146862927    0.281394293310176    0.346025492465829  0.0000
  O2     O2        0.260294195986034    0.684811720152112    0.297412489185918  0.0000
  O3     O3        0.750492635963206    0.252235429122913    0.645758017539379  0.0000
  O2     O2        0.761362957007941    0.693972739041958    0.679785434457818  0.0000
  O3     O3        0.144374484889973    0.228884287253877    0.133635445871325  0.0000
  O3     O3        0.360644085486520    0.715586414759624    0.105099662592109  0.0000
  O3     O3        0.849866790313557    0.185034857070770    0.856058604831401  0.0000
  O3     O3        0.663497273729305    0.734184481992007    0.876054035910491  0.0000
  O3     O3        0.852873647695933    0.709048999056037    0.878743292564034  0.0000
  O2     O2        0.658692271631209    0.213799718356140    0.848401105281781  0.0000
  O3     O3        0.170339847032315    0.751539142135031    0.102238676750154  0.0000
  O3     O3        0.337572128473653    0.179474364262770    0.131866595471510  0.0000
  O3     O3        0.625837264476644    0.446635048929832    0.034385612048671  0.0000
  O3     O3        0.878630899111543    0.422527536682832    0.037381398310284  0.0000
  O3     O3        0.378009822055327    0.410820077330941    0.953357928970163  0.0000
  O3     O3        0.126771157379964    0.462678738001320    0.951083006432375  0.0000
  O2     O2        0.751314960071346    0.264873062407023    0.045163443004508  0.0000
  O1     O1        0.752055048661295    0.660316580943039    0.092682584330639  0.0000
  O2     O2        0.247064106336546    0.262917984334459    0.942971603379112  0.0000
  O1     O1        0.261186847921675    0.654549569870572    0.889088074595460  0.0000
