data_POSCAR_N0021.vasp
_audit_creation_method             Generated by GULP
_audit_author_name                 Salvador R. G. Balestra
_symmetry_space_group_name_H-M     'P 1             '
_symmetry_Int_Tables_number        1

loop_
_symmetry_equiv_pos_site_id
_symmetry_equiv_pos_as_xyz
_cell_length_a                       17.7352
_cell_length_b                        7.8201
_cell_length_c                       10.1940
_cell_angle_alpha                   89.0531
_cell_angle_beta                    90.2538
_cell_angle_gamma                   90.8506

loop_
_atom_site_label
_atom_site_type_symbol
_atom_site_fract_x
_atom_site_fract_y
_atom_site_fract_z
_atom_site_charge
  Ge     Ge        0.052090000000021    0.000000000000000    0.372269999999958  0.0000
  Ge     Ge        0.442922289242637    0.055723284204196    0.359001851754220  0.0000
  Ge     Ge        0.944773266067015    0.077332985130949    0.615245581410826  0.0000
  Ge     Ge        0.543412124335384    0.036069023562920    0.617746356626875  0.0000
  Ge     Ge        0.558900791891436    0.014490879643477    0.129154179039683  0.0000
  Ge     Ge        0.943194518794270    0.071245711054793    0.125203259967981  0.0000
  Ge     Ge        0.445864205462827    0.077669100010771    0.884415992401910  0.0000
  Ge     Ge        0.046288103577236    0.014612768519420    0.871702750738307  0.0000
  Ge     Ge        0.175093807949134    0.284412055233400    0.257083179966088  0.0000
  Ge     Ge        0.327637403060573    0.758132676739234    0.258628637668282  0.0000
  Ge     Ge        0.847348670962981    0.391639637702747    0.685553901562971  0.0000
  Ge     Ge        0.642435833947247    0.718929287604654    0.690788198614414  0.0000
  Ge     Ge        0.820839816360892    0.795612878841606    0.685208292361328  0.0000
  Ge     Ge        0.668423026709273    0.310728777000433    0.692662064569556  0.0000
  Ge     Ge        0.144971624114825    0.687127027603860    0.258759781130096  0.0000
  Ge     Ge        0.672944160629093    0.311274091082804    0.009869677541972  0.0000
  Ge     Ge        0.823779472606078    0.790938221780081    0.003838408026308  0.0000
  Ge     Ge        0.146809170088499    0.702185429660178    0.938990472951113  0.0000
  Ge     Ge        0.326660673099373    0.779372671140112    0.944038126176396  0.0000
  Ge     Ge        0.172277730943281    0.298703261021637    0.932009234506960  0.0000
  Ge     Ge        0.852643503613182    0.389503247759660    0.005719046825391  0.0000
  Si     Si        0.347005557467336    0.366175699932223    0.247492594276691  0.0000
  Si     Si        0.342499757493029    0.385901158829668    0.934215446689705  0.0000
  Si     Si        0.648171678055847    0.711269260056702    0.002149325943546  0.0000
  O1     O1        0.130358569958531    0.124786029734348    0.342165989458642  0.0000
  O1     O1        0.374474922301711    0.900677626462771    0.356870291081330  0.0000
  O1     O1        0.910705445113404    0.280206555154883    0.593976156986961  0.0000
  O1     O1        0.575523310730739    0.829920000040361    0.605224494667657  0.0000
  O1     O1        0.872096324323350    0.933970805975894    0.588217531138002  0.0000
  O1     O1        0.618395324308832    0.176086611795287    0.594203486610768  0.0000
  O1     O1        0.078617025411736    0.793356621518831    0.347176168165571  0.0000
  O3     O3        0.416497675417092    0.252909788544248    0.292407261676910  0.0000
  O1     O1        0.024645163988947    0.030018941989964    0.532243935996387  0.0000
  O1     O1        0.467422342976632    0.079991404375551    0.521977600171831  0.0000
  O1     O1        0.972703413731785    0.057239266805454    0.285729298369887  0.0000
  O1     O1        0.526761811034206    0.001831269991260    0.287934388574749  0.0000
  O1     O1        0.969224657689354    0.059084398357738    0.780148502516625  0.0000
  O1     O1        0.518779836008711    0.062529699698317    0.779953738426013  0.0000
  O1     O1        0.627210424654925    0.170843854233883    0.113562812968850  0.0000
  O1     O1        0.865209186558846    0.942981974094995    0.099034782137245  0.0000
  O3     O3        0.410977852782229    0.285755911942537    0.875184409864814  0.0000
  O1     O1        0.083590608252320    0.816097200322282    0.847200082671163  0.0000
  O1     O1        0.377244000787973    0.925752796005407    0.852714906538547  0.0000
  O1     O1        0.118357472541321    0.161510653668078    0.843787138355249  0.0000
  O3     O3        0.590298765889046    0.813225072034356    0.089815060791099  0.0000
  O1     O1        0.920097401180702    0.280087162257284    0.091159654413383  0.0000
  O1     O1        0.478786036994172    0.059006516011648    0.041924091911767  0.0000
  O1     O1        0.019183439461580    0.013560564122688    0.034351846132171  0.0000
  O1     O1        0.151991785695762    0.480685639508763    0.316750770629321  0.0000
  O3     O3        0.346656313607910    0.550364162241757    0.314357207568514  0.0000
  O1     O1        0.833248047097638    0.592549677561240    0.624685709038364  0.0000
  O1     O1        0.654246061492227    0.517457456373008    0.635331986016134  0.0000
  O3     O3        0.271396702393516    0.257055485233981    0.278394234387455  0.0000
  O1     O1        0.232230765814612    0.786793360333220    0.266171579976362  0.0000
  O1     O1        0.763667865551914    0.275635413559189    0.689481188697853  0.0000
  O1     O1        0.726128997889607    0.834508569648311    0.682065638240859  0.0000
  O1     O1        0.149520319545677    0.271998760570381    0.095022977139296  0.0000
  O1     O1        0.359229093994406    0.799494198967947    0.102446012263961  0.0000
  O1     O1        0.879048253004069    0.410188758504786    0.844396205124667  0.0000
  O3     O3        0.616403872675153    0.699263757642436    0.854760476927093  0.0000
  O1     O1        0.854124087502916    0.807334462520934    0.844362943686083  0.0000
  O1     O1        0.639388226543558    0.287204786650600    0.853679332387149  0.0000
  O1     O1        0.116248267238885    0.679936056548583    0.098406508534584  0.0000
  O2     O2        0.345283938471574    0.416045319050283    0.092184136586253  0.0000
  O3     O3        0.660680469393753    0.521604862902894    0.059404790045230  0.0000
  O1     O1        0.844556583964980    0.591583674065502    0.066518267496986  0.0000
  O3     O3        0.338526695966725    0.577035203604239    0.876921774849891  0.0000
  O1     O1        0.155418113246951    0.503541719383694    0.876398475965880  0.0000
  O1     O1        0.768149037884489    0.278283006986575    0.014374476702050  0.0000
  O3     O3        0.727060330228192    0.816775827159692    0.999754519781492  0.0000
  O3     O3        0.267984594409905    0.270263038765139    0.909026555087626  0.0000
  O1     O1        0.231633121216195    0.814329116584126    0.942464619199733  0.0000
