data_POSCAR_N0023.vasp
_audit_creation_method             Generated by GULP
_audit_author_name                 Salvador R. G. Balestra
_symmetry_space_group_name_H-M     'P 1             '
_symmetry_Int_Tables_number        1

loop_
_symmetry_equiv_pos_site_id
_symmetry_equiv_pos_as_xyz
_cell_length_a                       17.6202
_cell_length_b                        7.8866
_cell_length_c                       10.3377
_cell_angle_alpha                   90.1028
_cell_angle_beta                    90.3902
_cell_angle_gamma                   88.3437

loop_
_atom_site_label
_atom_site_type_symbol
_atom_site_fract_x
_atom_site_fract_y
_atom_site_fract_z
_atom_site_charge
  Ge     Ge        0.052090000000021    0.000000000000000    0.372269999999958  0.0000
  Ge     Ge        0.444123591754436    0.943462961277700    0.365058112697583  0.0000
  Ge     Ge        0.948944535582035    0.943629608839969    0.624509351872778  0.0000
  Ge     Ge        0.547720173586742    0.998819714717433    0.618267683741662  0.0000
  Ge     Ge        0.550775503802934    0.000154433731704    0.120379503407687  0.0000
  Ge     Ge        0.943362953928780    0.939288029881044    0.124054755349221  0.0000
  Ge     Ge        0.444231513548971    0.939865940766412    0.871102025184189  0.0000
  Ge     Ge        0.141591827468785    0.314417737899037    0.256151140082490  0.0000
  Ge     Ge        0.352467482864792    0.629764201619978    0.248078656405190  0.0000
  Ge     Ge        0.825264688044310    0.229487464178190    0.693968371891426  0.0000
  Ge     Ge        0.671004740078994    0.713040892040995    0.692523150760969  0.0000
  Ge     Ge        0.851791686381093    0.629201368661775    0.693563822415451  0.0000
  Ge     Ge        0.644775082749668    0.313096335591177    0.687258179949687  0.0000
  Ge     Ge        0.171372155534868    0.712034541606935    0.258128025489691  0.0000
  Ge     Ge        0.323139650115970    0.231402915302837    0.252278183332368  0.0000
  Ge     Ge        0.641978646207845    0.312423102668022    0.002226366851156  0.0000
  Ge     Ge        0.852250573325326    0.626194878329669    0.007505876043450  0.0000
  Ge     Ge        0.321551552701270    0.231587841195578    0.939385937352891  0.0000
  Ge     Ge        0.162031306448930    0.710003217235886    0.944507494621558  0.0000
  Ge     Ge        0.343449747654788    0.630907610657300    0.932769860320700  0.0000
  Ge     Ge        0.139826747546029    0.309845845426208    0.942739889650739  0.0000
  Ge     Ge        0.670951590227975    0.712490256782820    0.006556175051665  0.0000
  Ge     Ge        0.823099308869875    0.226736537251297    0.008827741091023  0.0000
  Si     Si        0.044576085992927    0.001648703741918    0.878707246869557  0.0000
  O1     O1        0.076631955796924    0.205142790596513    0.342841383301304  0.0000
  O1     O1        0.420314073801227    0.738772938103986    0.329997483206882  0.0000
  O1     O1        0.875245144798582    0.088023761635671    0.599955934817447  0.0000
  O1     O1        0.621801164399229    0.854491789969311    0.596739599313395  0.0000
  O1     O1        0.915622850384244    0.742692299986466    0.606599532655825  0.0000
  O1     O1        0.580864129614440    0.199776496113823    0.598506210671744  0.0000
  O1     O1        0.128997604752817    0.865841890408023    0.350932480162183  0.0000
  O1     O1        0.367282713895179    0.078317884658587    0.344278748227444  0.0000
  O1     O1        0.025072936056477    0.982574085543719    0.531467682594711  0.0000
  O1     O1        0.470756209757393    0.955784161464668    0.525585855586731  0.0000
  O1     O1        0.974815244303224    0.945124292631985    0.281147299246300  0.0000
  O1     O1        0.522144904461302    0.001139926774842    0.279053506454933  0.0000
  O3     O3        0.974041316570326    0.966442885006428    0.787407633482364  0.0000
  O1     O1        0.520326525326310    0.980105700390894    0.778312766951926  0.0000
  O1     O1        0.574568264799004    0.204337613985900    0.083339277252988  0.0000
  O1     O1        0.918179043141143    0.734395938481256    0.094155472614015  0.0000
  O1     O1        0.371903318048367    0.089230134721219    0.847850605683148  0.0000
  O3     O3        0.110766907164002    0.858920527212069    0.855783713872892  0.0000
  O1     O1        0.405806718528199    0.744099602130695    0.843951597533375  0.0000
  O3     O3        0.077548020209123    0.187571379706821    0.854817435479009  0.0000
  O1     O1        0.627426814551196    0.863247729978286    0.101199922831632  0.0000
  O1     O1        0.866890213608655    0.076234640090687    0.104155447316637  0.0000
  O1     O1        0.474337874715821    0.938542138363723    0.030394628559766  0.0000
  O3     O3        0.018408764996225    0.996962739563325    0.028095027900040  0.0000
  O1     O1        0.154790779172532    0.512813710205585    0.319024587184193  0.0000
  O1     O1        0.341653294515428    0.430941817020919    0.311384511898621  0.0000
  O1     O1        0.839226680046150    0.430688809201241    0.633265599405664  0.0000
  O1     O1        0.657167145783680    0.512438043358575    0.629494289833181  0.0000
  O1     O1        0.227100083281381    0.203091553161143    0.254022871557556  0.0000
  O1     O1        0.267120852579404    0.741995223291308    0.254792361570719  0.0000
  O1     O1        0.729475157070096    0.197236123359517    0.689571314607575  0.0000
  O1     O1        0.766800820165012    0.744562769304721    0.694327236963178  0.0000
  O1     O1        0.110113167939264    0.336305539105506    0.099394424918309  0.0000
  O1     O1        0.376776896198537    0.606790892367339    0.088862573854275  0.0000
  O1     O1        0.855228001363079    0.214994241326335    0.852543629099377  0.0000
  O1     O1        0.638523479552568    0.727299434941604    0.849368117146709  0.0000
  O1     O1        0.882649403112329    0.606748415786902    0.850696374538462  0.0000
  O1     O1        0.613674023997373    0.334168206437221    0.843855337076673  0.0000
  O1     O1        0.134641270163662    0.721493681154524    0.103539979566630  0.0000
  O1     O1        0.355570305515904    0.217199966885659    0.095924964607014  0.0000
  O1     O1        0.653208902967583    0.512152229052425    0.064217112976068  0.0000
  O1     O1        0.840260459948587    0.426981988736242    0.068465512089378  0.0000
  O1     O1        0.332187411617078    0.431034342979213    0.873962842550262  0.0000
  O1     O1        0.146840281808073    0.510091828818866    0.881308176831404  0.0000
  O1     O1        0.726870152232513    0.198913011392561    0.008507329702242  0.0000
  O1     O1        0.767166323946856    0.739283836555656    0.008004435133216  0.0000
  O1     O1        0.225733452707891    0.200239724482406    0.943337785125093  0.0000
  O1     O1        0.257640886381803    0.742465379271562    0.937344569855023  0.0000
