data_POSCAR_N0012.vasp
_audit_creation_method             Generated by GULP
_audit_author_name                 Salvador R. G. Balestra
_symmetry_space_group_name_H-M     'P 1             '
_symmetry_Int_Tables_number        1

loop_
_symmetry_equiv_pos_site_id
_symmetry_equiv_pos_as_xyz
_cell_length_a                       17.3458
_cell_length_b                        7.7548
_cell_length_c                       10.3450
_cell_angle_alpha                   89.9235
_cell_angle_beta                    90.0004
_cell_angle_gamma                   89.9987

loop_
_atom_site_label
_atom_site_type_symbol
_atom_site_fract_x
_atom_site_fract_y
_atom_site_fract_z
_atom_site_charge
  Ge     Ge        0.052090000000021    0.000000000000000    0.372269999999958  0.0000
  Ge     Ge        0.452957449487453    0.999975296236747    0.372270752848357  0.0000
  Ge     Ge        0.953564798105141    0.993446415338358    0.637404412887419  0.0000
  Ge     Ge        0.551480968552614    0.993465058406344    0.637408504860947  0.0000
  Ge     Ge        0.345148552381401    0.688976502084580    0.315554557384066  0.0000
  Ge     Ge        0.658661640499941    0.683532440922770    0.713922119674905  0.0000
  Ge     Ge        0.846396857164606    0.683507029164067    0.713928105053415  0.0000
  Ge     Ge        0.159911130112314    0.689010670179154    0.315555854481618  0.0000
  Ge     Ge        0.660918467719053    0.339196678604367    0.062590851087680  0.0000
  Ge     Ge        0.346532398438405    0.340268977951266    0.969536768129707  0.0000
  Ge     Ge        0.158504233790193    0.340288483444645    0.969544772329822  0.0000
  Ge     Ge        0.844123545201438    0.339171556291480    0.062594315820912  0.0000
  Si     Si        0.559021860327408    0.027922680519338    0.117631618697696  0.0000
  Si     Si        0.946030392475014    0.027901039101299    0.117624422460618  0.0000
  Si     Si        0.443593623709688    0.029742478718648    0.882315091268129  0.0000
  Si     Si        0.061451432928875    0.029761533628642    0.882307545010823  0.0000
  Si     Si        0.160697976098407    0.296340243256738    0.270364938219344  0.0000
  Si     Si        0.841576637943263    0.287677394070954    0.757189967853836  0.0000
  Si     Si        0.663465161299936    0.287703774365102    0.757187057094512  0.0000
  Si     Si        0.344338975832170    0.296307272532787    0.270359172388594  0.0000
  Si     Si        0.843666386526167    0.732322705111951    0.016330751645578  0.0000
  Si     Si        0.162751429373893    0.737416538597486    0.010152899673304  0.0000
  Si     Si        0.342299535820901    0.737393671518900    0.010149870220581  0.0000
  Si     Si        0.661390161852703    0.732348946336954    0.016325058359657  0.0000
  O3     O3        0.125474777194647    0.151387900130785    0.360238506823133  0.0000
  O1     O1        0.406933124539131    0.809533840065676    0.406696734408432  0.0000
  O3     O3        0.883839760819863    0.139898943415764    0.679700265543920  0.0000
  O1     O1        0.597166135095160    0.798737824582004    0.618652118875526  0.0000
  O1     O1        0.907897689932611    0.798700630513202    0.618665778758471  0.0000
  O3     O3        0.621195606843800    0.139941681101432    0.679694017739480  0.0000
  O1     O1        0.098134666381177    0.809581308252159    0.406706014831433  0.0000
  O3     O3        0.379553379662452    0.151321930244447    0.360216798550401  0.0000
  O1     O1        0.990137072963283    0.056940843564224    0.491348979916435  0.0000
  O1     O1        0.514887914023247    0.056961961577777    0.491368570998275  0.0000
  O3     O3        0.002785278383341    0.972287304234136    0.229213936153678  0.0000
  O3     O3        0.502287742112073    0.972290316645749    0.229240321557181  0.0000
  O3     O3        0.029897165215518    0.977311165691845    0.743536206060538  0.0000
  O3     O3        0.475159626295817    0.977278578876114    0.743555702360863  0.0000
  O3     O3        0.598501601469619    0.210049301453713    0.150519849835878  0.0000
  O2     O2        0.878884605009683    0.883287423240900    0.104382899628668  0.0000
  O3     O3        0.403298634247484    0.215578068013830    0.869730180242328  0.0000
  O2     O2        0.123731977789674    0.888017758689308    0.927084246401440  0.0000
  O2     O2        0.381319524662464    0.887990269750800    0.927084890055139  0.0000
  O3     O3        0.101734880149183    0.215607412052090    0.869739469524496  0.0000
  O2     O2        0.626178271952672    0.883329522980901    0.104372091300020  0.0000
  O3     O3        0.906538328755937    0.210013723908197    0.150525979775639  0.0000
  O2     O2        0.514552475691270    0.041595843130453    0.981467521363308  0.0000
  O2     O2        0.990482887238396    0.041588955706105    0.981443945791115  0.0000
  O3     O3        0.125299299252808    0.480798801660471    0.308147990304893  0.0000
  O3     O3        0.379748677907241    0.480750226473157    0.308152623843067  0.0000
  O3     O3        0.878060115241980    0.472920143237678    0.723852184388326  0.0000
  O3     O3        0.626989880590699    0.472957613278253    0.723848680423174  0.0000
  O2     O2        0.252519476793980    0.322791033450519    0.288431726048255  0.0000
  O1     O1        0.252530396814370    0.701376683223564    0.372353132202194  0.0000
  O2     O2        0.752521478273928    0.299531173431518    0.711139636192382  0.0000
  O1     O1        0.752529721311179    0.698961638013111    0.663476358649726  0.0000
  O3     O3        0.145118791665717    0.251038137066907    0.121685462070817  0.0000
  O3     O3        0.348295710557992    0.778216468362606    0.160717670697287  0.0000
  O3     O3        0.843547411919234    0.251680278923915    0.909100383944591  0.0000
  O3     O3        0.648946304035579    0.774725673592694    0.866988358343928  0.0000
  O3     O3        0.856113018099877    0.774697465023744    0.866994490238486  0.0000
  O3     O3        0.661490410442016    0.251706353790245    0.909096587252304  0.0000
  O3     O3        0.156765291214314    0.778252838140468    0.160719645165815  0.0000
  O3     O3        0.359915757065453    0.251016932902807    0.121677487978894  0.0000
  O3     O3        0.625788594208320    0.548021546455770    0.056010532385208  0.0000
  O3     O3        0.879261731280839    0.547985660354804    0.056016008746616  0.0000
  O3     O3        0.378372173228214    0.551998313597906    0.975201016392842  0.0000
  O3     O3        0.126672046411633    0.552027612557788    0.975212867262032  0.0000
  O1     O1        0.752520963467232    0.331378909541353    0.124397026640011  0.0000
  O2     O2        0.752527602016463    0.710205484281250    0.043644970652916  0.0000
  O1     O1        0.252517353435268    0.328534430919114    0.921252488083698  0.0000
  O2     O2        0.252525061877482    0.723669688661286    0.969985480864072  0.0000
