data_POSCAR_N0005.vasp
_audit_creation_method             Generated by GULP
_audit_author_name                 Salvador R. G. Balestra
_symmetry_space_group_name_H-M     'P 1             '
_symmetry_Int_Tables_number        1

loop_
_symmetry_equiv_pos_site_id
_symmetry_equiv_pos_as_xyz
_cell_length_a                       17.3407
_cell_length_b                        7.6705
_cell_length_c                       10.2282
_cell_angle_alpha                   90.3535
_cell_angle_beta                    89.5625
_cell_angle_gamma                   89.7727

loop_
_atom_site_label
_atom_site_type_symbol
_atom_site_fract_x
_atom_site_fract_y
_atom_site_fract_z
_atom_site_charge
  Ge     Ge        0.052090000000021    0.000000000000000    0.372269999999958  0.0000
  Ge     Ge        0.554854982734965    0.008296236066391    0.604998998414637  0.0000
  Ge     Ge        0.339887691276612    0.714436713089217    0.274256319001762  0.0000
  Ge     Ge        0.850833742958140    0.693173785501734    0.705155754750243  0.0000
  Ge     Ge        0.655254724753125    0.325360448168251    0.017570325398690  0.0000
  Si     Si        0.455605240015492    0.003015080227622    0.343522059963941  0.0000
  Si     Si        0.957542881741567    0.997703689384161    0.639493690128702  0.0000
  Si     Si        0.553453982916995    0.015453038084406    0.087350863254060  0.0000
  Si     Si        0.941668107697674    0.009077178149066    0.129347390697493  0.0000
  Si     Si        0.441666901473039    0.007594086217509    0.848870903593858  0.0000
  Si     Si        0.058199174861396    0.002139609038258    0.895236530506869  0.0000
  Si     Si        0.170406075165424    0.288255763871828    0.269604993947210  0.0000
  Si     Si        0.839853626282792    0.286722975678515    0.716583743750154  0.0000
  Si     Si        0.670415657050348    0.713859236861973    0.702346897285824  0.0000
  Si     Si        0.662769099908281    0.307230039707816    0.709870866410364  0.0000
  Si     Si        0.159592592083968    0.692409458638182    0.277664370758174  0.0000
  Si     Si        0.348797220680205    0.305330789329128    0.264203071062657  0.0000
  Si     Si        0.845800293352806    0.703671485114965    0.016594023152137  0.0000
  Si     Si        0.344925973697623    0.315017866477753    0.958791370965465  0.0000
  Si     Si        0.160236105770912    0.694807814796241    0.970945762009748  0.0000
  Si     Si        0.337856769381768    0.714827424487745    0.961881445355904  0.0000
  Si     Si        0.166616393967663    0.297418261219891    0.965777896506622  0.0000
  Si     Si        0.667675489312649    0.729646385502824    0.006220708141027  0.0000
  Si     Si        0.835826507512454    0.306503687067183    0.024770686419259  0.0000
  O3     O3        0.120318627931227    0.160218242969000    0.354264063907088  0.0000
  O3     O3        0.398060255807281    0.843473094867663    0.368334728249725  0.0000
  O2     O2        0.889290531169697    0.141611814625275    0.640473229467963  0.0000
  O3     O3        0.613467068714205    0.827745966204288    0.617295331772641  0.0000
  O3     O3        0.916625805802858    0.812723971682414    0.617378105077773  0.0000
  O3     O3        0.606868625592756    0.197590136632853    0.619742645660994  0.0000
  O3     O3        0.095752055476981    0.798598573983770    0.356834193038565  0.0000
  O2     O2        0.404530434713984    0.179701732807555    0.344679661668189  0.0000
  O3     O3        0.020406642077484    0.030785145994406    0.530368856557810  0.0000
  O3     O3        0.522370134975405    0.012381319712490    0.446739878322313  0.0000
  O3     O3        0.972053770829862    0.017200371237019    0.275284847315425  0.0000
  O2     O2        0.493558601873475    0.971146881386500    0.200745850985987  0.0000
  O2     O2        0.997999296978886    0.005215743167381    0.780055549700420  0.0000
  O3     O3        0.474252722762063    0.999188068068209    0.703757722010843  0.0000
  O3     O3        0.589541505905125    0.205628160526794    0.106408466033101  0.0000
  O2     O2        0.896270337664991    0.828259491303291    0.108549562209794  0.0000
  O2     O2        0.397457045299027    0.191963113731419    0.867969784514021  0.0000
  O2     O2        0.104751839974627    0.819608602153001    0.888653157763183  0.0000
  O2     O2        0.384379923285913    0.845185935650850    0.868927643533143  0.0000
  O2     O2        0.116816824207163    0.164410077056171    0.879500219373766  0.0000
  O2     O2        0.623795337012868    0.876852883874466    0.089823272616280  0.0000
  O2     O2        0.886430340886245    0.174830020629026    0.108821557576717  0.0000
  O2     O2        0.513019270192649    0.995889919775832    0.947151237384346  0.0000
  O2     O2        0.015389385496059    0.019840137905277    0.034008016609891  0.0000
  O2     O2        0.145708901774792    0.487136431306753    0.298932135765110  0.0000
  O3     O3        0.368694509282755    0.501855062225624    0.298100332187612  0.0000
  O3     O3        0.872704655780057    0.475517564673534    0.684443400970814  0.0000
  O2     O2        0.644864261571019    0.512280245094833    0.695798013495990  0.0000
  O2     O2        0.260434531877380    0.263873996313978    0.303283635215515  0.0000
  O3     O3        0.245058977434048    0.741514708563402    0.322547866990796  0.0000
  O2     O2        0.751727043416870    0.271688595473659    0.668409441392160  0.0000
  O3     O3        0.757872412841093    0.732222672246855    0.653354565217363  0.0000
  O2     O2        0.157441274765434    0.244546082776523    0.116894489662838  0.0000
  O3     O3        0.349081682535079    0.767831393086277    0.111157986068385  0.0000
  O2     O2        0.840262385206929    0.254261617911016    0.872235798436426  0.0000
  O2     O2        0.665775658854765    0.778568791854743    0.853006377561729  0.0000
  O3     O3        0.859975423783832    0.753288631161755    0.867461934716355  0.0000
  O3     O3        0.649016504508388    0.250751231288115    0.858659981030780  0.0000
  O2     O2        0.152133128501832    0.739657750730348    0.124144089639548  0.0000
  O2     O2        0.360307238680592    0.268174309180040    0.109373742916828  0.0000
  O3     O3        0.630072667140842    0.542549474655925    0.030116775008551  0.0000
  O2     O2        0.869282677399732    0.502356741743396    0.042515933409450  0.0000
  O2     O2        0.367461155827929    0.516612528354421    0.935434329339489  0.0000
  O2     O2        0.136502208380142    0.494519179409003    0.942938927862188  0.0000
  O3     O3        0.748253215451956    0.298340690725707    0.073061628233089  0.0000
  O2     O2        0.755859343403114    0.726241550036707    0.053758903984856  0.0000
  O2     O2        0.255849722290994    0.283294540425497    0.922912534992166  0.0000
  O2     O2        0.247780717027276    0.726696522252449    0.925099907817992  0.0000
