data_POSCAR_N0009.vasp
_audit_creation_method             Generated by GULP
_audit_author_name                 Salvador R. G. Balestra
_symmetry_space_group_name_H-M     'P 1             '
_symmetry_Int_Tables_number        1

loop_
_symmetry_equiv_pos_site_id
_symmetry_equiv_pos_as_xyz
_cell_length_a                       17.4032
_cell_length_b                        7.6956
_cell_length_c                       10.2563
_cell_angle_alpha                   90.0400
_cell_angle_beta                    90.5150
_cell_angle_gamma                   89.6202

loop_
_atom_site_label
_atom_site_type_symbol
_atom_site_fract_x
_atom_site_fract_y
_atom_site_fract_z
_atom_site_charge
  Ge     Ge        0.052090000000021    0.000000000000000    0.372269999999958  0.0000
  Ge     Ge        0.453750840054323    0.986445152174947    0.374906588366414  0.0000
  Ge     Ge        0.951817807212472    0.997736098706791    0.642370060824097  0.0000
  Ge     Ge        0.347195343411775    0.678903523341435    0.291044191109677  0.0000
  Ge     Ge        0.659480009037858    0.705889537019144    0.697319881533506  0.0000
  Ge     Ge        0.660673987139015    0.343018546434794    0.039242209745866  0.0000
  Ge     Ge        0.339002313076390    0.318114818239673    0.950742992988035  0.0000
  Ge     Ge        0.156442934064523    0.343383420074465    0.949319247772378  0.0000
  Ge     Ge        0.846361279810172    0.341205484973169    0.034749535577651  0.0000
  Si     Si        0.550969209766982    0.007247237690340    0.635600069237791  0.0000
  Si     Si        0.561558196367075    0.035062269641608    0.128220976191068  0.0000
  Si     Si        0.943801042094344    0.027980353105221    0.129728528541576  0.0000
  Si     Si        0.448306009961583    0.017798745832876    0.886214344729098  0.0000
  Si     Si        0.057691692735519    0.028435098576442    0.896356095162527  0.0000
  Si     Si        0.158670909475322    0.303116043010772    0.258654943476046  0.0000
  Si     Si        0.840240326926194    0.301119277396458    0.727198630629923  0.0000
  Si     Si        0.839487581211200    0.702876343351661    0.697360526292438  0.0000
  Si     Si        0.661291024425535    0.299456271006089    0.729892358037923  0.0000
  Si     Si        0.166485004734566    0.703895165310801    0.286605099990715  0.0000
  Si     Si        0.334262681156814    0.271337208778391    0.258725631248721  0.0000
  Si     Si        0.841374991877594    0.739102576937930    0.999149357016894  0.0000
  Si     Si        0.168392838198673    0.739929295636663    0.985120814658879  0.0000
  Si     Si        0.348215271354002    0.717386506084318    0.986417725804236  0.0000
  Si     Si        0.662504208584564    0.740861835717014    0.004689663630400  0.0000
  O3     O3        0.100327020615536    0.188408090039160    0.337920268296946  0.0000
  O1     O1        0.411697753024227    0.786233235468439    0.386857184607747  0.0000
  O3     O3        0.891611124532818    0.177488438143075    0.639829482247712  0.0000
  O3     O3        0.597554942976708    0.830689661174140    0.604037274913606  0.0000
  O3     O3        0.896833943879529    0.813885103511297    0.611673271755945  0.0000
  O2     O2        0.612515444418715    0.161982609245619    0.647019519139619  0.0000
  O3     O3        0.111514363089026    0.819412773018426    0.374059185180720  0.0000
  O3     O3        0.380563361718187    0.129281894502580    0.338914211024607  0.0000
  O1     O1        0.020259167660430    0.021990321257399    0.528094468841720  0.0000
  O3     O3        0.490462303054282    0.049100858099383    0.523945426164551  0.0000
  O3     O3        0.972467308745481    0.974325303287616    0.272123567748119  0.0000
  O3     O3        0.528693476616524    0.986559538146007    0.267098267578312  0.0000
  O3     O3        0.997613020769719    0.967347655131365    0.790328495737944  0.0000
  O2     O2        0.506972017621215    0.980914246537921    0.771373499710886  0.0000
  O3     O3        0.601588534634581    0.221603708760490    0.136610876802161  0.0000
  O2     O2        0.878891535041344    0.894913304653798    0.079514167550772  0.0000
  O3     O3        0.398692162312863    0.189243009152998    0.857656531471298  0.0000
  O2     O2        0.131219757482339    0.897526894313126    0.903671623702745  0.0000
  O2     O2        0.391845203730766    0.853158379871561    0.895300350926536  0.0000
  O3     O3        0.090310713776480    0.218422859886851    0.864321276053016  0.0000
  O2     O2        0.625653540984657    0.892125747337237    0.091104954903401  0.0000
  O3     O3        0.906875375805134    0.219274209761444    0.132617598630191  0.0000
  O2     O2        0.492784203026071    0.042829042810860    0.022859033033384  0.0000
  O2     O2        0.017908662104373    0.024886946107819    0.037545082932910  0.0000
  O2     O2        0.137792763093192    0.505356862761417    0.283762048450854  0.0000
  O3     O3        0.369063510526481    0.461068642672680    0.286207816154711  0.0000
  O2     O2        0.863871936301563    0.500757384371047    0.700962007918743  0.0000
  O3     O3        0.631961759603839    0.491621725891543    0.694607414215241  0.0000
  O2     O2        0.246064928204015    0.268550716331733    0.307756230766253  0.0000
  O3     O3        0.253348430821944    0.711863848923842    0.339263582052940  0.0000
  O2     O2        0.750503101793457    0.279544765086662    0.690201369481478  0.0000
  O3     O3        0.752963990088903    0.721842582731714    0.644234327287783  0.0000
  O3     O3        0.154762213721959    0.262794872582333    0.106265319948831  0.0000
  O3     O3        0.359691686508974    0.766631699336720    0.136409666915116  0.0000
  O3     O3        0.853010412218073    0.256891523946092    0.878562679095572  0.0000
  O3     O3        0.652902858420316    0.786601934893701    0.854062959864594  0.0000
  O2     O2        0.844707640966516    0.781050818625674    0.844918937308023  0.0000
  O3     O3        0.653704545171228    0.262510692008632    0.882233088268088  0.0000
  O2     O2        0.162176405157509    0.779925908764504    0.139191552825337  0.0000
  O3     O3        0.336366869854989    0.230887298750180    0.105745323207966  0.0000
  O3     O3        0.626588979933032    0.555146005686131    0.038452398819828  0.0000
  O3     O3        0.879197022975631    0.554213322793289    0.032460830014985  0.0000
  O3     O3        0.377908012755324    0.524123074963609    0.957548345608077  0.0000
  O3     O3        0.128222974157762    0.559546401534657    0.947600723860690  0.0000
  O1     O1        0.754258003945085    0.329260672559887    0.090104845376106  0.0000
  O2     O2        0.752722298266296    0.721878075625091    0.040844126085533  0.0000
  O1     O1        0.247378647209027    0.321426810344279    0.888879860063236  0.0000
  O2     O2        0.257669925397813    0.718369295694781    0.948626341091027  0.0000
