data_POSCAR_N0006.vasp
_audit_creation_method             Generated by GULP
_audit_author_name                 Salvador R. G. Balestra
_symmetry_space_group_name_H-M     'P 1             '
_symmetry_Int_Tables_number        1

loop_
_symmetry_equiv_pos_site_id
_symmetry_equiv_pos_as_xyz
_cell_length_a                       17.4115
_cell_length_b                        7.6946
_cell_length_c                       10.1904
_cell_angle_alpha                   90.0006
_cell_angle_beta                    89.9978
_cell_angle_gamma                   89.4936

loop_
_atom_site_label
_atom_site_type_symbol
_atom_site_fract_x
_atom_site_fract_y
_atom_site_fract_z
_atom_site_charge
  Ge     Ge        0.052090000000021    0.000000000000000    0.372269999999958  0.0000
  Ge     Ge        0.552101976747833    0.000041656802426    0.605617200299845  0.0000
  Ge     Ge        0.344540896270424    0.690559730807833    0.277935402865562  0.0000
  Ge     Ge        0.844578168332685    0.690448673930930    0.699962915880915  0.0000
  Ge     Ge        0.658152615950826    0.313605592416607    0.019224091748825  0.0000
  Ge     Ge        0.158200615853275    0.313504797690125    0.958672103273498  0.0000
  Si     Si        0.453593752190751    0.988226663824768    0.342301085518963  0.0000
  Si     Si        0.953583176246345    0.988187101460292    0.635593597644291  0.0000
  Si     Si        0.554768035994884    0.008932809862600    0.089005208677145  0.0000
  Si     Si        0.941547254354199    0.001832887391775    0.126545078874635  0.0000
  Si     Si        0.441552859188206    0.001852473787202    0.851342019859163  0.0000
  Si     Si        0.054768991471421    0.008916698705657    0.888876778749968  0.0000
  Si     Si        0.163283137871217    0.293561958205922    0.267269186298308  0.0000
  Si     Si        0.840078138317273    0.284719240205097    0.714561740324734  0.0000
  Si     Si        0.664672575978411    0.699958868002524    0.700747419073402  0.0000
  Si     Si        0.663245525586164    0.293660566801662    0.710627647158953  0.0000
  Si     Si        0.164631620199673    0.699884642176313    0.277157448080515  0.0000
  Si     Si        0.340115216774386    0.284809107381870    0.263343240051937  0.0000
  Si     Si        0.842782213110006    0.701621871532917    0.012668650995224  0.0000
  Si     Si        0.338482521954239    0.305123795305221    0.954254206700037  0.0000
  Si     Si        0.164924899758953    0.716638834341055    0.972273406384419  0.0000
  Si     Si        0.342746454962733    0.701714711382867    0.965232524721212  0.0000
  Si     Si        0.664968804716859    0.716734088643215    0.005638013510804  0.0000
  Si     Si        0.838432327060532    0.305040073949154    0.023650218343087  0.0000
  O3     O3        0.109025234372306    0.180297754411320    0.356956146244495  0.0000
  O3     O3        0.406707605049627    0.813277698266609    0.369390652032831  0.0000
  O2     O2        0.891374464882518    0.144945812096997    0.638024529797459  0.0000
  O3     O3        0.605594757580846    0.811047018579995    0.616143753659548  0.0000
  O3     O3        0.906763222178417    0.813143320850442    0.608517423761531  0.0000
  O3     O3        0.608978201731733    0.180433342192903    0.620935197289081  0.0000
  O3     O3        0.105528018530389    0.810917678255187    0.361762303144523  0.0000
  O2     O2        0.391450541299311    0.145115439351472    0.339876861097701  0.0000
  O3     O3        0.018482492321747    0.017875783811938    0.530483409421294  0.0000
  O3     O3        0.518506236493387    0.017814110649779    0.447396936507318  0.0000
  O3     O3        0.972320263940325    0.997881737796456    0.273082436341989  0.0000
  O2     O2        0.493038892513708    0.971455627344186    0.199848964899459  0.0000
  O2     O2        0.993025852516765    0.971543998468939    0.778047333543151  0.0000
  O3     O3        0.472326698162117    0.997837260801048    0.704802935610420  0.0000
  O3     O3        0.595827353196750    0.191706312652485    0.111713054802028  0.0000
  O2     O2        0.891512557096109    0.829581426934019    0.103647362462112  0.0000
  O2     O2        0.391526607192073    0.177012760664280    0.869617127315250  0.0000
  O2     O2        0.120054957514586    0.858943533900371    0.886746156652565  0.0000
  O2     O2        0.391429815789419    0.829731786994440    0.874224281549473  0.0000
  O3     O3        0.095911109887665    0.191585310259894    0.866140143534110  0.0000
  O2     O2        0.620127704544703    0.859119020265275    0.091146144921606  0.0000
  O2     O2        0.891433067972834    0.176863267610060    0.108296715009505  0.0000
  O2     O2        0.514595092923363    0.005683216486834    0.947010959644842  0.0000
  O2     O2        0.014590462187708    0.005881397183044    0.030874959566222  0.0000
  O2     O2        0.142406298804108    0.497167387648178    0.282077110220010  0.0000
  O3     O3        0.369451774647055    0.474991544893095    0.297354133041959  0.0000
  O3     O3        0.869468543333629    0.474864397420987    0.680559401307481  0.0000
  O2     O2        0.642389736303468    0.497274053188305    0.695828867681787  0.0000
  O2     O2        0.252039096941175    0.263814018141319    0.309476485918998  0.0000
  O3     O3        0.250867354410566    0.723821282835433    0.328130936814391  0.0000
  O2     O2        0.751999910851788    0.263859363880896    0.668419861740032  0.0000
  O3     O3        0.750913216877970    0.723765255042236    0.649754374463876  0.0000
  O3     O3        0.151991092288554    0.237464683464045    0.117343744346899  0.0000
  O3     O3        0.353754804773626    0.751215088540350    0.115514881922879  0.0000
  O2     O2        0.843456099655327    0.252060286431990    0.870922228588052  0.0000
  O2     O2        0.660227795321321    0.765401152571095    0.851648513603280  0.0000
  O3     O3        0.853792807177217    0.751099936227621    0.862383105939195  0.0000
  O3     O3        0.651936741348399    0.237569675818112    0.860551065235073  0.0000
  O2     O2        0.160157052871331    0.765329515462924    0.126258659140497  0.0000
  O2     O2        0.343512883912602    0.252152843812982    0.106982193564500  0.0000
  O3     O3        0.630163782656023    0.528404846968912    0.030908996100586  0.0000
  O2     O2        0.869386320933079    0.502238550575945    0.039496889498395  0.0000
  O2     O2        0.369392623016215    0.502356833669628    0.938405171716987  0.0000
  O3     O3        0.130164312034303    0.528272902095611    0.947005750772590  0.0000
  O3     O3        0.751784687319358    0.292119323914725    0.072919025191319  0.0000
  O2     O2        0.753317910024470    0.718195201264809    0.051564410177637  0.0000
  O3     O3        0.251840243508779    0.292097039294623    0.904984767558561  0.0000
  O2     O2        0.253278120922202    0.718183266758483    0.926362661445790  0.0000
