data_POSCAR_N0015.vasp
_audit_creation_method             Generated by GULP
_audit_author_name                 Salvador R. G. Balestra
_symmetry_space_group_name_H-M     'P 1             '
_symmetry_Int_Tables_number        1

loop_
_symmetry_equiv_pos_site_id
_symmetry_equiv_pos_as_xyz
_cell_length_a                       17.6558
_cell_length_b                        7.7879
_cell_length_c                       10.1653
_cell_angle_alpha                   90.3304
_cell_angle_beta                    90.0763
_cell_angle_gamma                   89.2613

loop_
_atom_site_label
_atom_site_type_symbol
_atom_site_fract_x
_atom_site_fract_y
_atom_site_fract_z
_atom_site_charge
  Ge     Ge        0.052090000000021    0.000000000000000    0.372269999999958  0.0000
  Ge     Ge        0.445114995472157    0.956076503154598    0.368615961019455  0.0000
  Ge     Ge        0.948925982908269    0.968245707089058    0.629358748881363  0.0000
  Ge     Ge        0.550860099711611    0.992848550358825    0.623592896519564  0.0000
  Ge     Ge        0.557018526977550    0.000350853120123    0.126636850752994  0.0000
  Ge     Ge        0.939343083712157    0.951988121889906    0.132214196201213  0.0000
  Ge     Ge        0.445995297828956    0.950828970560681    0.880607662297221  0.0000
  Ge     Ge        0.053612102979784    0.987643848628775    0.890082156467147  0.0000
  Ge     Ge        0.847790018238775    0.651876176475847    0.697346153257069  0.0000
  Ge     Ge        0.651612432035768    0.309155307061391    0.689422903460241  0.0000
  Ge     Ge        0.170896418242243    0.705554169264050    0.254320176116833  0.0000
  Ge     Ge        0.326328708525712    0.250007493503741    0.258831151465438  0.0000
  Ge     Ge        0.345239631530522    0.634564992031138    0.934652003303855  0.0000
  Ge     Ge        0.671888280704425    0.706074821769354    0.005853203523493  0.0000
  Ge     Ge        0.824581416363686    0.245510266459818    0.004589725736455  0.0000
  Si     Si        0.149703515876824    0.302003467020352    0.257073472920796  0.0000
  Si     Si        0.347341775667874    0.650852337857412    0.251668940226246  0.0000
  Si     Si        0.829017496335524    0.251201396984631    0.692654942904617  0.0000
  Si     Si        0.669566991700797    0.709131038351294    0.695720004331551  0.0000
  Si     Si        0.647898266772574    0.306247601239638    0.002014869741466  0.0000
  Si     Si        0.849005584655872    0.645750323124777    0.007546592525421  0.0000
  Si     Si        0.329269236654447    0.239748723411209    0.946964282398434  0.0000
  Si     Si        0.167850954395393    0.693351196825343    0.940847070723152  0.0000
  Si     Si        0.153495857054708    0.299178026025000    0.950856885817055  0.0000
  O3     O3        0.086661308892578    0.201226521009352    0.336141943639121  0.0000
  O3     O3        0.410936140325210    0.756034780478322    0.328290344197230  0.0000
  O3     O3        0.878583609651478    0.122844270522206    0.604295581043373  0.0000
  O3     O3        0.622548353315534    0.839765612290587    0.606083758956689  0.0000
  O1     O1        0.907582792686156    0.770752634253132    0.605316960209871  0.0000
  O1     O1        0.591099852821364    0.190242952793418    0.596825135851324  0.0000
  O1     O1        0.120068245563508    0.843744016155737    0.349705774598406  0.0000
  O1     O1        0.376490130593066    0.112337094115442    0.355054543937021  0.0000
  O1     O1        0.026970680541471    0.999798153181100    0.536082982160442  0.0000
  O1     O1        0.473403160908185    0.950716530089703    0.531145406029403  0.0000
  O1     O1        0.968240137135264    0.959269662499451    0.293403677316416  0.0000
  O1     O1        0.527189611475639    0.003846073155720    0.287214245582455  0.0000
  O1     O1        0.976728317347615    0.976032381863705    0.791825174950983  0.0000
  O1     O1        0.520873593977785    0.996492203788414    0.785184264376509  0.0000
  O3     O3        0.587247285041563    0.203681864222409    0.086032945108822  0.0000
  O3     O3        0.906892103875722    0.747826143412389    0.098724903543649  0.0000
  O3     O3        0.370834077303823    0.096016541240908    0.862168030038309  0.0000
  O3     O3        0.116346511012433    0.819314732118185    0.855047258953239  0.0000
  O1     O1        0.407523142810383    0.752498294954555    0.847607071888885  0.0000
  O3     O3        0.100196859320572    0.181616294854058    0.864972649629064  0.0000
  O1     O1        0.627658830519533    0.849067243413849    0.106877472370803  0.0000
  O1     O1        0.870306216251686    0.103958549680937    0.103819079491784  0.0000
  O1     O1        0.477414008278557    0.948340686208620    0.040250969938924  0.0000
  O1     O1        0.021562524415669    0.988339145296483    0.048584639398002  0.0000
  O3     O3        0.154137813226352    0.497407483686989    0.305229080793077  0.0000
  O3     O3        0.341755946473786    0.459598502069784    0.308517411420682  0.0000
  O3     O3        0.842472476365250    0.443850168077131    0.641583323015857  0.0000
  O3     O3        0.656286506111586    0.518356733410115    0.638155448982156  0.0000
  O3     O3        0.230899490907273    0.208389809715551    0.274641938750128  0.0000
  O3     O3        0.266391813592333    0.747066140064637    0.268387808377236  0.0000
  O3     O3        0.740342431431852    0.212187889992042    0.683541031723550  0.0000
  O3     O3        0.758469603303830    0.746964306421153    0.695116956356324  0.0000
  O2     O2        0.126744934579797    0.298495631183046    0.102634052257529  0.0000
  O3     O3        0.369052129922303    0.640650167687610    0.099135905483304  0.0000
  O3     O3        0.855743602447233    0.229832750921877    0.844192185309688  0.0000
  O3     O3        0.639304803288757    0.726250488286266    0.845794391744954  0.0000
  O3     O3        0.879467635967599    0.647203760722566    0.858592325497559  0.0000
  O3     O3        0.621324890123674    0.312010523878718    0.851106725269323  0.0000
  O3     O3        0.144722594772124    0.730055223609571    0.092007279196982  0.0000
  O3     O3        0.356582506011718    0.223633105519077    0.098077091224316  0.0000
  O3     O3        0.655076310940762    0.498441851237638    0.057730308700249  0.0000
  O3     O3        0.840949874353595    0.453079449022715    0.059104591684722  0.0000
  O3     O3        0.349600733816610    0.423396294416457    0.885691177883011  0.0000
  O2     O2        0.152172103898679    0.494777828287322    0.900350885576047  0.0000
  O3     O3        0.728692074903523    0.207636139387272    0.010439552546718  0.0000
  O3     O3        0.767734776877473    0.742645463509219    0.010219169105126  0.0000
  O2     O2        0.238458522784420    0.221134034748151    0.945509896146777  0.0000
  O3     O3        0.255847291728320    0.725662536380185    0.918363433675248  0.0000
