data_POSCAR_N0002.vasp
_audit_creation_method             Generated by GULP
_audit_author_name                 Salvador R. G. Balestra
_symmetry_space_group_name_H-M     'P 1             '
_symmetry_Int_Tables_number        1

loop_
_symmetry_equiv_pos_site_id
_symmetry_equiv_pos_as_xyz
_cell_length_a                       17.3274
_cell_length_b                        7.6438
_cell_length_c                       10.0930
_cell_angle_alpha                   89.9998
_cell_angle_beta                    90.0000
_cell_angle_gamma                   90.0000

loop_
_atom_site_label
_atom_site_type_symbol
_atom_site_fract_x
_atom_site_fract_y
_atom_site_fract_z
_atom_site_charge
  Ge     Ge        0.052090000000021    0.000000000000000    0.372269999999958  0.0000
  Ge     Ge        0.552090026524248    0.999956562331781    0.649117902667210  0.0000
  Si     Si        0.450287630634850    0.999945153007114    0.387698418590618  0.0000
  Si     Si        0.950287654128744    0.000013877142056    0.633689380708747  0.0000
  Si     Si        0.555070843498207    0.999949348367568    0.143528368185155  0.0000
  Si     Si        0.942470127108363    0.999979735169285    0.115291041849071  0.0000
  Si     Si        0.442470068202984    0.999979851014488    0.906096876858943  0.0000
  Si     Si        0.055070819617659    0.000007412254643    0.877859552296581  0.0000
  Si     Si        0.164981304975717    0.297126670433846    0.296728049481376  0.0000
  Si     Si        0.342524088994524    0.700214384877172    0.287462946554627  0.0000
  Si     Si        0.842524736189653    0.299745015507226    0.733925164317638  0.0000
  Si     Si        0.664980710501462    0.702829369726733    0.724659664739118  0.0000
  Si     Si        0.842476642820642    0.700327943506972    0.733929962393880  0.0000
  Si     Si        0.665026611585084    0.297006318519571    0.724658546040127  0.0000
  Si     Si        0.165025981028254    0.702949649173605    0.296729577001792  0.0000
  Si     Si        0.342477206029033    0.299631522507586    0.287457713950239  0.0000
  Si     Si        0.658631894669843    0.298146287685687    0.032512202995342  0.0000
  Si     Si        0.836554890444006    0.698210873350865    0.044806117398849  0.0000
  Si     Si        0.336555432381441    0.301749208072897    0.976581541570991  0.0000
  Si     Si        0.158631234935649    0.701810089223732    0.988875873350293  0.0000
  Si     Si        0.336609235383274    0.698122076015987    0.976591424083698  0.0000
  Si     Si        0.158581261419184    0.298279858034013    0.988871079358064  0.0000
  Si     Si        0.658580697056514    0.701676588739402    0.032516588165827  0.0000
  Si     Si        0.836609910362905    0.301837947650074    0.044796670648620  0.0000
  O3     O3        0.110809395368058    0.181787998863852    0.387732694308184  0.0000
  O2     O2        0.399525101706629    0.826438259645344    0.366006136099172  0.0000
  O2     O2        0.899526190080041    0.173522204224289    0.655382027280240  0.0000
  O3     O3        0.610808459852513    0.818167147040902    0.633655031187454  0.0000
  O2     O2        0.899452401352595    0.826625462374356    0.655405742966819  0.0000
  O3     O3        0.610891257584079    0.181608685048466    0.633635289396795  0.0000
  O3     O3        0.110890249453167    0.818346455164296    0.387752682219774  0.0000
  O2     O2        0.399453460130345    0.173334938143615    0.365981607454949  0.0000
  O3     O3        0.978549247000753    0.999951004873219    0.484423653113125  0.0000
  O3     O3        0.478549115962844    0.000007566743280    0.536964239489535  0.0000
  O3     O3        0.009641565521044    0.999883631653607    0.219017821026517  0.0000
  O2     O2        0.526373716735277    0.999990250192595    0.295047366773006  0.0000
  O2     O2        0.026373645345967    0.999966484981977    0.726340612941715  0.0000
  O3     O3        0.509641459481981    0.000073626753742    0.802369952169204  0.0000
  O2     O2        0.605311216658671    0.174397488452532    0.121062870909000  0.0000
  O2     O2        0.888426225618215    0.828537153941298    0.131390690235230  0.0000
  O2     O2        0.388427280730429    0.171424006756300    0.889997050277717  0.0000
  O2     O2        0.105310080008695    0.825557958913323    0.900325436463504  0.0000
  O2     O2        0.388518036177184    0.828383119257777    0.890009965239906  0.0000
  O2     O2        0.105211005006088    0.174604722634911    0.900345616733619  0.0000
  O2     O2        0.605209969657343    0.825350622845381    0.121041979522599  0.0000
  O2     O2        0.888519240083877    0.171578162700667    0.131378265240717  0.0000
  O2     O2        0.479920413406194    0.000068142809136    0.051963948705359  0.0000
  O2     O2        0.979920480395046    0.999890761470065    0.969424046973970  0.0000
  O2     O2        0.146215396425179    0.500046695296304    0.321030964448303  0.0000
  O2     O2        0.363694732437690    0.499910342795521    0.322816856695415  0.0000
  O2     O2        0.863694772505929    0.500049395659153    0.698571113964119  0.0000
  O2     O2        0.646215410249317    0.499908963424080    0.700357064895508  0.0000
  O2     O2        0.254600486620979    0.259339212430806    0.329778692623170  0.0000
  O2     O2        0.254655478876607    0.740615165189799    0.329766960729389  0.0000
  O2     O2        0.754656223904345    0.259342495750839    0.691621264996684  0.0000
  O2     O2        0.754599787313322    0.740618435261718    0.691608976350558  0.0000
  O2     O2        0.148624476176343    0.247521287218494    0.142904290285757  0.0000
  O2     O2        0.351779597723678    0.732681114404746    0.131277390496304  0.0000
  O2     O2        0.851780333726588    0.267278730722647    0.890110752124285  0.0000
  O2     O2        0.648623778350078    0.752434861498459    0.878483363946534  0.0000
  O2     O2        0.851706988069169    0.732790143469583    0.890118507061216  0.0000
  O2     O2        0.648675721700330    0.247380057111765    0.878480711953605  0.0000
  O2     O2        0.148675010878431    0.752575729644367    0.142907427988199  0.0000
  O2     O2        0.351707569384327    0.267170016973577    0.131269129181098  0.0000
  O2     O2        0.634219793245735    0.499895920913010    0.055586042130973  0.0000
  O2     O2        0.859784197333175    0.500037497785200    0.082621834792791  0.0000
  O2     O2        0.359784131606120    0.499923018374852    0.938765978603938  0.0000
  O2     O2        0.134219728777150    0.500060089859144    0.965801739566275  0.0000
  O2     O2        0.746877700414291    0.269604040438175    0.077223349972006  0.0000
  O2     O2        0.746816400583309    0.730329111832426    0.077249711766047  0.0000
  O2     O2        0.246817045095313    0.269629201439402    0.944137907665184  0.0000
  O2     O2        0.246876936450368    0.730354214387063    0.944164735795253  0.0000
