data_POSCAR_N0024.vasp
_audit_creation_method             Generated by GULP
_audit_author_name                 Salvador R. G. Balestra
_symmetry_space_group_name_H-M     'P 1             '
_symmetry_Int_Tables_number        1

loop_
_symmetry_equiv_pos_site_id
_symmetry_equiv_pos_as_xyz
_cell_length_a                       17.6966
_cell_length_b                        7.9064
_cell_length_c                       10.2942
_cell_angle_alpha                   90.0001
_cell_angle_beta                    90.0002
_cell_angle_gamma                   91.6387

loop_
_atom_site_label
_atom_site_type_symbol
_atom_site_fract_x
_atom_site_fract_y
_atom_site_fract_z
_atom_site_charge
  Ge     Ge        0.052090000000021    0.000000000000000    0.372269999999958  0.0000
  Ge     Ge        0.446720208384350    0.055853557600965    0.416004868861333  0.0000
  Ge     Ge        0.946725697639735    0.055849479717256    0.621729434287309  0.0000
  Ge     Ge        0.552085281309871    0.000002621691578    0.665464368753079  0.0000
  Ge     Ge        0.555426897375385    0.003582584028925    0.171025151626404  0.0000
  Ge     Ge        0.950914797350106    0.064841476214516    0.117601214670213  0.0000
  Ge     Ge        0.450907361072872    0.064826767100505    0.920131702191997  0.0000
  Ge     Ge        0.055430847928521    0.003576650998760    0.866713147891673  0.0000
  Ge     Ge        0.174131756352105    0.286184517013483    0.299163708672341  0.0000
  Ge     Ge        0.327289879984706    0.767135259891584    0.301511078729715  0.0000
  Ge     Ge        0.854767416111733    0.368482881665451    0.739914481321832  0.0000
  Ge     Ge        0.646864401604020    0.684795814186219    0.734697289299230  0.0000
  Ge     Ge        0.827295100859756    0.767128850175000    0.736217559401083  0.0000
  Ge     Ge        0.674128444155432    0.286190240831170    0.738573784039152  0.0000
  Ge     Ge        0.146861318423206    0.684782364171841    0.303040063616138  0.0000
  Ge     Ge        0.354770335344443    0.368492559773170    0.297820715554282  0.0000
  Ge     Ge        0.674258617567705    0.291619141663017    0.054009461128053  0.0000
  Ge     Ge        0.827615289218811    0.775336748350759    0.050752850396688  0.0000
  Ge     Ge        0.354142764153712    0.377704923421818    0.981898977439242  0.0000
  Ge     Ge        0.146962206086741    0.692089708402662    0.987865626286418  0.0000
  Ge     Ge        0.327606525513092    0.775330297388367    0.986973470930129  0.0000
  Ge     Ge        0.174259286353167    0.291606585557250    0.983729430749863  0.0000
  Ge     Ge        0.646971486335186    0.692111358154118    0.049869799650433  0.0000
  Ge     Ge        0.854140649014093    0.377706443188736    0.055840430680660  0.0000
  O1     O1        0.126048727720315    0.143465175189016    0.394884705097756  0.0000
  O1     O1        0.371831558981381    0.916803187013587    0.395872785450118  0.0000
  O1     O1        0.920434896859816    0.258539625306301    0.654788467180241  0.0000
  O1     O1        0.584326866073540    0.798911966381574    0.644755367562724  0.0000
  O1     O1        0.871839908221280    0.916788074412167    0.641852309301160  0.0000
  O1     O1        0.626040307805401    0.143479104224275    0.642851991362335  0.0000
  O1     O1        0.084323707530663    0.798903535312574    0.392978224160793  0.0000
  O1     O1        0.420436191871396    0.258547973181799    0.382950042923300  0.0000
  O1     O1        0.974307111473777    0.044104619036844    0.461147878114617  0.0000
  O1     O1        0.474300658742787    0.044094189605647    0.576586646874249  0.0000
  O1     O1        0.026520753990214    0.018922996359580    0.210268640057411  0.0000
  O1     O1        0.525709688408323    0.002974162699773    0.330023524261370  0.0000
  O1     O1        0.025715539792510    0.002970919131555    0.707713676366301  0.0000
  O1     O1        0.526514378534139    0.018914709757741    0.827465960198252  0.0000
  O1     O1        0.630432774805957    0.143798557521304    0.151007232425761  0.0000
  O1     O1        0.876967449567053    0.920825829677259    0.141104750755719  0.0000
  O1     O1        0.417424396662014    0.264726490965997    0.893880264339298  0.0000
  O1     O1        0.081662294253621    0.800859851411178    0.902154883132434  0.0000
  O1     O1        0.376955816498540    0.920823422838134    0.896621128284108  0.0000
  O1     O1        0.130446386191065    0.143762504431072    0.886735438403137  0.0000
  O1     O1        0.581677810009088    0.800874539004564    0.135598747800850  0.0000
  O1     O1        0.917424831145594    0.264733455684688    0.143858286128445  0.0000
  O1     O1        0.479095116665701    0.060624577988928    0.080700986219687  0.0000
  O1     O1        0.979106210697311    0.060665897963346    0.957033806507836  0.0000
  O1     O1        0.158576434452552    0.485809038067753    0.361459013025706  0.0000
  O1     O1        0.342871705622499    0.567023634944519    0.361020261798300  0.0000
  O1     O1        0.842870988211944    0.567014015158735    0.676711376724249  0.0000
  O1     O1        0.658576936802298    0.485817557947452    0.676283971944228  0.0000
  O1     O1        0.269675087668482    0.255941584112463    0.300208656695681  0.0000
  O1     O1        0.231814227284135    0.797220870197395    0.300364316582137  0.0000
  O1     O1        0.769671146589708    0.255934816726446    0.737524240611305  0.0000
  O1     O1        0.731820079125026    0.797224959841180    0.737367800638247  0.0000
  O1     O1        0.141879398592087    0.274464064003751    0.141073177664930  0.0000
  O1     O1        0.360203322511812    0.784689578106339    0.144801562769687  0.0000
  O1     O1        0.884129760255506    0.396238451926491    0.897080834929777  0.0000
  O1     O1        0.616019354904505    0.668585494136112    0.892782610279424  0.0000
  O1     O1        0.860212490177831    0.784691948376899    0.892925273881682  0.0000
  O1     O1        0.641879182137379    0.274468797973241    0.896665632483006  0.0000
  O1     O1        0.116017726693075    0.668555016874986    0.144955219752518  0.0000
  O1     O1        0.384135931200632    0.396240116960446    0.140655885109242  0.0000
  O1     O1        0.658584726075684    0.492943752853213    0.111467338780859  0.0000
  O1     O1        0.842485951844825    0.576464548793143    0.115040346399993  0.0000
  O1     O1        0.342485259020030    0.576457992010066    0.922692040756784  0.0000
  O1     O1        0.158574109342457    0.492922622467661    0.926263230946949  0.0000
  O1     O1        0.769783538186354    0.263094569183729    0.053159651813454  0.0000
  O1     O1        0.732023161360274    0.804892164827059    0.051369687495146  0.0000
  O1     O1        0.269784961727639    0.263097629185271    0.984588980942159  0.0000
  O1     O1        0.232013727038614    0.804871829429066    0.986352981330258  0.0000
