data_image0
_chemical_formula_structural       Ge4Si20O48
_chemical_formula_sum              "Ge4 Si20 O48"
_cell_length_a       10.786620879340648
_cell_length_b       15.65219810616848
_cell_length_c       9.247683997429103
_cell_angle_alpha    89.91262779662448
_cell_angle_beta     105.77121839490552
_cell_angle_gamma    89.8412281607383

_space_group_name_H-M_alt    "P 1"
_space_group_IT_number       1

loop_
  _space_group_symop_operation_xyz
  'x, y, z'

loop_
  _atom_site_type_symbol
  _atom_site_label
  _atom_site_symmetry_multiplicity
  _atom_site_fract_x
  _atom_site_fract_y
  _atom_site_fract_z
  _atom_site_occupancy
  Ge  Ge1       1.0  0.3405815585972344  0.22102705514584986  0.8867844882540306  1.0000
  Ge  Ge2       1.0  0.647211018560841  0.2274629528543219  0.0927512443663213  1.0000
  Ge  Ge3       1.0  0.3761622166100187  0.3804624223413593  0.6798274121888666  1.0000
  Ge  Ge4       1.0  0.5771028995436099  0.38217750303138837  0.3045660773281557  1.0000
  Si  Si1       1.0  0.6215489271120853  0.7407486746074575  0.09721325361025296  1.0000
  Si  Si2       1.0  0.32558219153836254  0.739234380414688  0.8857075850008358  1.0000
  Si  Si3       1.0  0.825388377443647  0.7270466110603855  0.886802861958648  1.0000
  Si  Si4       1.0  0.12175149372747192  0.7266608523055129  0.09630675942308452  1.0000
  Si  Si5       1.0  0.1385301110383159  0.2335894900282267  0.09674256010273771  1.0000
  Si  Si6       1.0  0.8518337304239403  0.2389088547088962  0.8841033409532207  1.0000
  Si  Si7       1.0  0.27596505613945066  0.3802238677281593  0.31237115685211825  1.0000
  Si  Si8       1.0  0.676835688108994  0.38013195586672427  0.6703161851361558  1.0000
  Si  Si9       1.0  0.6681987203506028  0.5857492544531978  0.6637839935538052  1.0000
  Si  Si10      1.0  0.2779684645492445  0.584778633720455  0.32001212958905917  1.0000
  Si  Si11      1.0  0.7764238128645342  0.8798738749080489  0.32226839876664304  1.0000
  Si  Si12      1.0  0.16610061430782835  0.8769959211499391  0.6579120498316374  1.0000
  Si  Si13      1.0  0.1685117448893237  0.08063127369182384  0.6579376873357088  1.0000
  Si  Si14      1.0  0.778201787611917  0.08179293165180394  0.3234057007461353  1.0000
  Si  Si15      1.0  0.5728551832479756  0.5897896405989087  0.3068717386213993  1.0000
  Si  Si16      1.0  0.37405675991686715  0.5876705795934674  0.6787480876748995  1.0000
  Si  Si17      1.0  0.8749402157501585  0.8794756242157744  0.6808047489513102  1.0000
  Si  Si18      1.0  0.06903462048333889  0.8789326378058726  0.30120415194589584  1.0000
  Si  Si19      1.0  0.06893124984921098  0.08218513781853067  0.30116730356926463  1.0000
  Si  Si20      1.0  0.8790001996886847  0.08252778006896608  0.6817351895746108  1.0000
  O   O1        1.0  0.5100423885935395  0.20289482407046455  0.9423495680284644  1.0000
  O   O2        1.0  0.4743338008849918  0.7608530090659243  0.9882390221962263  1.0000
  O   O3        1.0  0.9746507586882741  0.7053302881238648  0.9886875973016263  1.0000
  O   O4        1.0  0.010603420937410271  0.2532129264941548  0.951973701715361  1.0000
  O   O5        1.0  0.2941630379156116  0.136107280007867  0.7562439803781636  1.0000
  O   O6        1.0  0.6582051676945402  0.14375588665009942  0.22631389106845343  1.0000
  O   O7        1.0  0.656403715231876  0.8212314328713083  0.22008855169632208  1.0000
  O   O8        1.0  0.28708675726170385  0.818911340539421  0.7609654895608476  1.0000
  O   O9        1.0  0.7866781653637179  0.6450175123828791  0.7675355315450373  1.0000
  O   O10       1.0  0.15909061211654463  0.6452431254640051  0.21806783536333574  1.0000
  O   O11       1.0  0.15806430150511355  0.31968069609907646  0.20889382926229227  1.0000
  O   O12       1.0  0.8000126657493836  0.323605312283087  0.7735251033637536  1.0000
  O   O13       1.0  0.302181182565646  0.3234314258966921  0.8003585589929637  1.0000
  O   O14       1.0  0.6471850864644204  0.3301557836163837  0.17575184642652367  1.0000
  O   O15       1.0  0.6304728464758753  0.6484312471537738  0.19043998725093134  1.0000
  O   O16       1.0  0.3152777982512559  0.6462468382079006  0.7944604985619532  1.0000
  O   O17       1.0  0.8153464335576229  0.8203906184796563  0.7955600530619992  1.0000
  O   O18       1.0  0.12733049196059829  0.8203241746722143  0.18479523233022582  1.0000
  O   O19       1.0  0.12517119175130242  0.14327977941451803  0.18711403773846536  1.0000
  O   O20       1.0  0.8197827482934785  0.1460849416181865  0.7912107319693366  1.0000
  O   O21       1.0  0.27078067945056916  0.21538765809355256  0.03926185454047805  1.0000
  O   O22       1.0  0.7879270302591637  0.23301684025568337  0.02898499071698053  1.0000
  O   O23       1.0  0.7262938804321339  0.7343613839036975  0.9955006157550339  1.0000
  O   O24       1.0  0.22598828203035523  0.7336527155539279  0.9939175382778066  1.0000
  O   O25       1.0  0.4085972281878375  0.3610067975759842  0.2546385475757452  1.0000
  O   O26       1.0  0.5451294041739475  0.3588394535082632  0.7289555614239432  1.0000
  O   O27       1.0  0.5330913939588938  0.6035440328385231  0.7156938649126192  1.0000
  O   O28       1.0  0.4131847368223102  0.6036295026955252  0.2691139034137855  1.0000
  O   O29       1.0  0.9103154977424812  0.861790302528142  0.267905113499363  1.0000
  O   O30       1.0  0.032845230332279506  0.8588967498405324  0.713364554826366  1.0000
  O   O31       1.0  0.0378130311415767  0.10021981403964146  0.7175877282311754  1.0000
  O   O32       1.0  0.9101871384547613  0.09856217340897366  0.26544116966582915  1.0000
  O   O33       1.0  0.2972254136991591  0.3499371348892796  0.49181568458926994  1.0000
  O   O34       1.0  0.656099031595711  0.3486083892305478  0.49124948151129755  1.0000
  O   O35       1.0  0.6475226788819584  0.6158506866029986  0.48474205493337674  1.0000
  O   O36       1.0  0.2976705123692008  0.6117619079253118  0.5002287954641418  1.0000
  O   O37       1.0  0.7968508236714748  0.8544941308310349  0.5033941143344685  1.0000
  O   O38       1.0  0.14533685288145762  0.8501003547410743  0.4776162266273699  1.0000
  O   O39       1.0  0.14477266784966844  0.10906968791687031  0.47801038071817553  1.0000
  O   O40       1.0  0.8021596649413931  0.10746829121564276  0.5041723727007656  1.0000
  O   O41       1.0  0.23107967060090606  0.48285780044802507  0.28776878314293214  1.0000
  O   O42       1.0  0.715659097767065  0.48362812134253097  0.6916411648922961  1.0000
  O   O43       1.0  0.7269323269859053  0.9812314289717421  0.29073621500777275  1.0000
  O   O44       1.0  0.21354450659341848  0.9784779255633913  0.685853153625651  1.0000
  O   O45       1.0  0.3406691828039893  0.4874413726433676  0.7194632867530191  1.0000
  O   O46       1.0  0.6114433361221403  0.4900983635311499  0.27024425597617024  1.0000
  O   O47       1.0  0.849461198300552  0.9813579425466946  0.7213729539447378  1.0000
  O   O48       1.0  0.09968345812539373  0.9805137726703365  0.2654866914983996  1.0000
