data_image0
_chemical_formula_structural       Ge4Si20O48
_chemical_formula_sum              "Ge4 Si20 O48"
_cell_length_a       10.642384624016884
_cell_length_b       15.677454546306604
_cell_length_c       9.201823462029187
_cell_angle_alpha    90.01483948848923
_cell_angle_beta     105.2492429611049
_cell_angle_gamma    90.00229579889681

_space_group_name_H-M_alt    "P 1"
_space_group_IT_number       1

loop_
  _space_group_symop_operation_xyz
  'x, y, z'

loop_
  _atom_site_type_symbol
  _atom_site_label
  _atom_site_symmetry_multiplicity
  _atom_site_fract_x
  _atom_site_fract_y
  _atom_site_fract_z
  _atom_site_occupancy
  Ge  Ge1       1.0  0.29766082828841883  0.3759026760646428  0.3161076269673497  1.0000
  Ge  Ge2       1.0  0.7154023188253584  0.5707947658696538  0.6592715572235786  1.0000
  Ge  Ge3       1.0  0.21559253445977347  0.8761893611922121  0.6597746823784166  1.0000
  Ge  Ge4       1.0  0.7974483422378696  0.07031976822542195  0.3155859724041583  1.0000
  Si  Si1       1.0  0.33207908097966526  0.22761002899413138  0.8837401250782669  1.0000
  Si  Si2       1.0  0.6264127319615813  0.21258258884336664  0.09052079043477877  1.0000
  Si  Si3       1.0  0.6809224670699496  0.7189538855208268  0.09168140591982397  1.0000
  Si  Si4       1.0  0.3865879345413791  0.7339476691368478  0.8848638464039981  1.0000
  Si  Si5       1.0  0.8865618020567194  0.712942568426239  0.8847426947865334  1.0000
  Si  Si6       1.0  0.18091488354724217  0.7274129118895515  0.0916875661526715  1.0000
  Si  Si7       1.0  0.1264633188416916  0.2337349716189301  0.09067011377047043  1.0000
  Si  Si8       1.0  0.8321059630344018  0.21925785718774257  0.8837632524669983  1.0000
  Si  Si9       1.0  0.697160609582513  0.36422231860695553  0.6567944967294279  1.0000
  Si  Si10      1.0  0.31594682790476164  0.5824669977881753  0.31863751419410763  1.0000
  Si  Si11      1.0  0.8161146091883305  0.863747994813409  0.31914351399884866  1.0000
  Si  Si12      1.0  0.19700729151118035  0.08276312861084191  0.656286403335218  1.0000
  Si  Si13      1.0  0.4003192883850281  0.37657257389854887  0.6819502880815151  1.0000
  Si  Si14      1.0  0.6012697759472504  0.36676376663927607  0.29654970768566125  1.0000
  Si  Si15      1.0  0.6127243222655299  0.5699999502334984  0.29335690958433636  1.0000
  Si  Si16      1.0  0.4118693936297133  0.579817214786729  0.6789153478342171  1.0000
  Si  Si17      1.0  0.9120703063136543  0.8670909786872072  0.6793514286863178  1.0000
  Si  Si18      1.0  0.11284525472995273  0.8762926200555826  0.2939408017085477  1.0000
  Si  Si19      1.0  0.10104718794844761  0.07955005322347494  0.2961430802514804  1.0000
  Si  Si20      1.0  0.9001640959215751  0.0703632367399806  0.6813837608147947  1.0000
  O   O1        1.0  0.46672693433945023  0.20177055918336342  0.01526276438243798  1.0000
  O   O2        1.0  0.5462422558831329  0.7448653369286645  0.9602614999721084  1.0000
  O   O3        1.0  0.046202856906631555  0.7018356256836593  0.9600100027473099  1.0000
  O   O4        1.0  0.9667908359460877  0.24480333053140768  0.015528081602440692  1.0000
  O   O5        1.0  0.3070496058220146  0.15122585076800488  0.752238555506505  1.0000
  O   O6        1.0  0.6626411470087817  0.12904246607054756  0.20817867169947502  1.0000
  O   O7        1.0  0.7060812659231117  0.7951990563793847  0.2234498912942543  1.0000
  O   O8        1.0  0.3503768758757404  0.8173572458584294  0.7669341061199595  1.0000
  O   O9        1.0  0.850130617486593  0.6299631693917391  0.7657887170890064  1.0000
  O   O10       1.0  0.20575439345312513  0.6508065669009216  0.2227142471538649  1.0000
  O   O11       1.0  0.16294788671010457  0.31676592870245535  0.20949085723863567  1.0000
  O   O12       1.0  0.80737005760202  0.2959387743777438  0.752884505903167  1.0000
  O   O13       1.0  0.3435115937816445  0.32288913557235055  0.8065969441258254  1.0000
  O   O14       1.0  0.6613610409270353  0.3055161376914275  0.1829635309009055  1.0000
  O   O15       1.0  0.6695883772120599  0.6236127901145735  0.16867387252641314  1.0000
  O   O16       1.0  0.3517437551166193  0.6409358635983907  0.7926561022296108  1.0000
  O   O17       1.0  0.8520540299082463  0.8062543145483527  0.7935321806339224  1.0000
  O   O18       1.0  0.1698855575109097  0.8225592574659298  0.16952029199085086  1.0000
  O   O19       1.0  0.160986108966532  0.14045864826497487  0.18199692486936678  1.0000
  O   O20       1.0  0.8431981441632679  0.12414364704455103  0.8058237404289958  1.0000
  O   O21       1.0  0.20539275389733525  0.23574521179854346  0.9571300321942544  1.0000
  O   O22       1.0  0.7053304398341821  0.2110420237738934  0.9569563352187035  1.0000
  O   O23       1.0  0.8075277530343737  0.7108901764474531  0.018163556049823976  1.0000
  O   O24       1.0  0.3076241446520365  0.7355623530356392  0.018372917681415028  1.0000
  O   O25       1.0  0.44052643582943996  0.34670558838484905  0.26115885636684516  1.0000
  O   O26       1.0  0.556890883416909  0.35139369457053565  0.7039031937977032  1.0000
  O   O27       1.0  0.57263065237196  0.5999486973163858  0.714485736296725  1.0000
  O   O28       1.0  0.45615679319027275  0.595206651630084  0.27136649350926295  1.0000
  O   O29       1.0  0.9558135981422714  0.8518444585114485  0.27039926704401834  1.0000
  O   O30       1.0  0.07319157964447848  0.847967695061287  0.7165237172365637  1.0000
  O   O31       1.0  0.05720714520352845  0.09474733766559804  0.7047903426216512  1.0000
  O   O32       1.0  0.9399592633756287  0.09869312031045369  0.25918203961111674  1.0000
  O   O33       1.0  0.30983456503627005  0.35109533922148284  0.5084825276185412  1.0000
  O   O34       1.0  0.6794457353351778  0.34305996660669885  0.47437965092428314  1.0000
  O   O35       1.0  0.7031408368080692  0.5955228824767708  0.46684072495053425  1.0000
  O   O36       1.0  0.333821370574481  0.6036152279437274  0.5010853126808302  1.0000
  O   O37       1.0  0.8353925451659733  0.8420368860102267  0.5016193696493496  1.0000
  O   O38       1.0  0.20217610672040856  0.8501235463219788  0.4675827656416094  1.0000
  O   O39       1.0  0.17793853901578324  0.104504589866046  0.4738572648702503  1.0000
  O   O40       1.0  0.8107065753906545  0.09645969001466392  0.5077255986802067  1.0000
  O   O41       1.0  0.25369259532486366  0.48454592311821065  0.2737740563827607  1.0000
  O   O42       1.0  0.7593801923312203  0.46215322868269126  0.7016628445582572  1.0000
  O   O43       1.0  0.752923359950791  0.9615394756287493  0.27550865231456745  1.0000
  O   O44       1.0  0.2601492803823451  0.9849612797211457  0.6998620191880816  1.0000
  O   O45       1.0  0.38343312572646393  0.47934022892655154  0.72160457806098  1.0000
  O   O46       1.0  0.6296517797665357  0.4672302357666451  0.25376629283529084  1.0000
  O   O47       1.0  0.8818157570946549  0.967613167929078  0.719888440130845  1.0000
  O   O48       1.0  0.13121286896097054  0.9790380323939701  0.2554661580242463  1.0000
