data_c00013.vasp
_audit_creation_method             Generated by GULP
_audit_author_name                 Salvador R. G. Balestra
_symmetry_space_group_name_H-M     'P 1             '
_symmetry_Int_Tables_number        1

loop_
_symmetry_equiv_pos_site_id
_symmetry_equiv_pos_as_xyz
_cell_length_a                       10.2759
_cell_length_b                       15.1394
_cell_length_c                        8.9061
_cell_angle_alpha                   90.2063
_cell_angle_beta                   105.0631
_cell_angle_gamma                   89.9637

loop_
_atom_site_label
_atom_site_type_symbol
_atom_site_fract_x
_atom_site_fract_y
_atom_site_fract_z
_atom_site_charge
  Ge     Ge        0.351599999999962    0.244500000000016    0.893900000000031  0.0000
  Ge     Ge        0.222999916829500    0.893487178876998    0.665817201120816  0.0000
  Si     Si        0.649503150820202    0.232380935614521    0.106869057039456  0.0000
  Si     Si        0.666225132960597    0.747564519111138    0.106719932290892  0.0000
  Si     Si        0.372639524718676    0.751084278928876    0.893987861688828  0.0000
  Si     Si        0.865506840281173    0.737193698322240    0.890033708575712  0.0000
  Si     Si        0.160877366131264    0.738936171689004    0.093502939916077  0.0000
  Si     Si        0.141932561159869    0.255355480653187    0.102969442286841  0.0000
  Si     Si        0.850140131983592    0.246672979338951    0.895768788763069  0.0000
  Si     Si        0.315636423827431    0.394614149944958    0.326454396664069  0.0000
  Si     Si        0.710045145436421    0.391152264067953    0.668726272502177  0.0000
  Si     Si        0.718591348918807    0.593852185461964    0.665633054151728  0.0000
  Si     Si        0.323871940709521    0.599554911957666    0.323899169341889  0.0000
  Si     Si        0.822545640321454    0.890953678295967    0.332567611708634  0.0000
  Si     Si        0.215123957765718    0.098795247785908    0.662860176454508  0.0000
  Si     Si        0.816729687158146    0.093838879945164    0.331611975464387  0.0000
  Si     Si        0.410952245065909    0.396817548919283    0.683272902585290  0.0000
  Si     Si        0.615021531489868    0.390310478431791    0.308588397552016  0.0000
  Si     Si        0.623550388980259    0.592367954985294    0.307337950070107  0.0000
  Si     Si        0.418946413018135    0.601178448156789    0.678522500264442  0.0000
  Si     Si        0.920317648677674    0.890864943995614    0.688032535102688  0.0000
  Si     Si        0.120100590498482    0.894709609129182    0.301772440093261  0.0000
  Si     Si        0.111698465707898    0.095415966336175    0.302531097701548  0.0000
  Si     Si        0.919395153459070    0.096038799044405    0.688923645217961  0.0000
  O3     O3        0.493229839679583    0.215948512392013    0.033843406831999  0.0000
  O2     O2        0.511288610015689    0.765427357475266    0.022996671979354  0.0000
  O2     O2        0.008920193883103    0.714892192963449    0.004747736197434  0.0000
  O2     O2        0.983288398557170    0.271096918125062    0.028857473991196  0.0000
  O3     O3        0.327259866998461    0.166578440991117    0.747955269126642  0.0000
  O2     O2        0.700113707850074    0.154364992595783    0.229682039461028  0.0000
  O2     O2        0.711625006607316    0.826852803264593    0.228830599348768  0.0000
  O3     O3        0.351925688014410    0.829654383850230    0.771852839025698  0.0000
  O2     O2        0.833007570555328    0.657793724087992    0.764920343910581  0.0000
  O2     O2        0.211903940510024    0.660885869607671    0.216098517947891  0.0000
  O2     O2        0.197469056820432    0.336041497895146    0.220532720889110  0.0000
  O2     O2        0.820609241086554    0.325617635104427    0.770339386685957  0.0000
  O3     O3        0.359355365959033    0.346158562976045    0.810549185650768  0.0000
  O2     O2        0.671369846319762    0.326424347045380    0.196875970835995  0.0000
  O2     O2        0.683353503699371    0.654124741631184    0.196152628352680  0.0000
  O2     O2        0.368553792195531    0.659055823478865    0.801886331512708  0.0000
  O2     O2        0.863852625774523    0.831018108188334    0.805337256364488  0.0000
  O2     O2        0.167231830685169    0.832594480098014    0.180363997546242  0.0000
  O2     O2        0.167368997548599    0.163043138152127    0.196536567167753  0.0000
  O2     O2        0.865345739341869    0.155110823888526    0.809269625856398  0.0000
  O3     O3        0.213796086556373    0.249980987702648    0.966816622145612  0.0000
  O2     O2        0.726337462176578    0.234201235725137    0.971882894679215  0.0000
  O2     O2        0.752956625647195    0.743570316981844    0.983138198987632  0.0000
  O2     O2        0.249503035446798    0.748795838031554    0.972371214345331  0.0000
  O2     O2        0.455889283347151    0.371835385108105    0.284742543718441  0.0000
  O2     O2        0.567449268114501    0.372381960637856    0.704834981084818  0.0000
  O2     O2        0.576701137539165    0.618966099485538    0.698971265348354  0.0000
  O2     O2        0.467076531683303    0.615939323125025    0.286980280643417  0.0000
  O2     O2        0.968309560606849    0.869970470436015    0.306004123166598  0.0000
  O3     O3        0.071320858034161    0.862055516354992    0.697621081316503  0.0000
  O2     O2        0.072143123233473    0.123527143161974    0.697678121940933  0.0000
  O2     O2        0.956939398377436    0.118750182951090    0.293554218381849  0.0000
  O2     O2        0.328387542975193    0.373041728417105    0.506837941420546  0.0000
  O2     O2        0.696370709431764    0.373842941636248    0.486645593126692  0.0000
  O2     O2        0.708803528620944    0.607868323989025    0.484168212094448  0.0000
  O2     O2        0.335499669581761    0.624937086539979    0.503139523551690  0.0000
  O2     O2        0.827942188784029    0.876167664254648    0.512938234826821  0.0000
  O3     O3        0.217436543675726    0.882793798350712    0.471227384470959  0.0000
  O2     O2        0.200817956551558    0.102391526570063    0.478704948594548  0.0000
  O2     O2        0.827429029601376    0.110115238381720    0.513625542655021  0.0000
  O2     O2        0.280517879209474    0.497539126007975    0.292803081930058  0.0000
  O2     O2        0.755910271124804    0.492138296885923    0.711382625227110  0.0000
  O2     O2        0.780674986295784    0.991902723629056    0.287130261586480  0.0000
  O3     O3        0.256982444750619    0.001261639516760    0.723323939400899  0.0000
  O2     O2        0.394197121288038    0.500102638207019    0.713487425971342  0.0000
  O2     O2        0.636764959799562    0.490587483632199    0.259880445340729  0.0000
  O2     O2        0.914220990633998    0.993538621476546    0.736325066981040  0.0000
  O2     O2        0.123844540354966    0.995679396676988    0.242962410452186  0.0000
