data_c00039.vasp
_audit_creation_method             Generated by GULP
_audit_author_name                 Salvador R. G. Balestra
_symmetry_space_group_name_H-M     'P 1             '
_symmetry_Int_Tables_number        1

loop_
_symmetry_equiv_pos_site_id
_symmetry_equiv_pos_as_xyz
_cell_length_a                       10.2511
_cell_length_b                       15.1494
_cell_length_c                        8.9497
_cell_angle_alpha                   90.0493
_cell_angle_beta                   105.3914
_cell_angle_gamma                   90.0777

loop_
_atom_site_label
_atom_site_type_symbol
_atom_site_fract_x
_atom_site_fract_y
_atom_site_fract_z
_atom_site_charge
  Ge     Ge        0.403900000000021    0.397900000000050    0.686299999999960  0.0000
  Ge     Ge        0.613811444038616    0.397011269269501    0.310166085031703  0.0000
  Si     Si        0.348979442544228    0.243303138583055    0.899007399899669  0.0000
  Si     Si        0.646753566458433    0.238547824219774    0.100488624931224  0.0000
  Si     Si        0.653431698909827    0.757930487989305    0.104091428447654  0.0000
  Si     Si        0.356136822428678    0.757696814834593    0.894204766370354  0.0000
  Si     Si        0.856499792810606    0.744361729664237    0.893179218041305  0.0000
  Si     Si        0.152894679851498    0.743055470441275    0.104895414012222  0.0000
  Si     Si        0.144260883321429    0.255455085353244    0.104269722271332  0.0000
  Si     Si        0.848804678901598    0.252099902987853    0.893806458028566  0.0000
  Si     Si        0.306924178484515    0.396951150317931    0.327638408129272  0.0000
  Si     Si        0.711661502652759    0.397881763481290    0.669393395307362  0.0000
  Si     Si        0.707195454019285    0.601428271072082    0.668629770212868  0.0000
  Si     Si        0.313923355240381    0.602077092188076    0.328455508751635  0.0000
  Si     Si        0.813385631186144    0.897820389401551    0.330402583900493  0.0000
  Si     Si        0.209577678065680    0.900218806037017    0.669561338758526  0.0000
  Si     Si        0.208091666001348    0.102013929534727    0.668683286257675  0.0000
  Si     Si        0.811871962678288    0.100942804964052    0.329191681568062  0.0000
  Si     Si        0.611749168166664    0.603251020731553    0.309977430557184  0.0000
  Si     Si        0.408319472775045    0.604617916326336    0.685909455178222  0.0000
  Si     Si        0.908673180214247    0.897912232164129    0.686107752999251  0.0000
  Si     Si        0.113305162087057    0.898151840951170    0.312483021587012  0.0000
  Si     Si        0.111477080740352    0.100925455609362    0.311950217943978  0.0000
  Si     Si        0.907742504999980    0.101047608345822    0.684910753956608  0.0000
  O2     O2        0.488536853967548    0.221581250010235    0.024357551862668  0.0000
  O2     O2        0.499716848485386    0.775771844488722    0.012711598743970  0.0000
  O2     O2        0.999419015637187    0.724222760745585    0.012032728818414  0.0000
  O2     O2        0.986704516950521    0.269220340862615    0.023883797020611  0.0000
  O2     O2        0.321324320566116    0.167750572081552    0.766791955188629  0.0000
  O2     O2        0.695412843982105    0.161925757613966    0.227030386610485  0.0000
  O2     O2        0.697603114097944    0.838227099416053    0.223610933081820  0.0000
  O2     O2        0.324168352016568    0.838956235529194    0.774632737660723  0.0000
  O2     O2        0.823145339513704    0.664663035402221    0.769418879202181  0.0000
  O2     O2        0.196945350018374    0.662871036610455    0.225043496932056  0.0000
  O2     O2        0.190297355924829    0.339793080247073    0.213626702657469  0.0000
  O2     O2        0.823918048732520    0.336766234809718    0.781815658929981  0.0000
  O3     O3        0.354877940762062    0.337691313134218    0.823143317643720  0.0000
  O3     O3        0.670597654673427    0.332706045419701    0.183390663915475  0.0000
  O2     O2        0.670029647660489    0.667574613561588    0.201295417516944  0.0000
  O2     O2        0.353340109005606    0.668408969234097    0.797459405831800  0.0000
  O2     O2        0.857635707454874    0.836450206240368    0.803917177385910  0.0000
  O2     O2        0.167470691778185    0.835241589653919    0.198586857311004  0.0000
  O2     O2        0.168670668985411    0.165099710856154    0.202900640951774  0.0000
  O2     O2        0.853995812877285    0.162841311694612    0.799090747733927  0.0000
  O2     O2        0.226558381911478    0.246060231624347    0.977546897576309  0.0000
  O2     O2        0.725659656998399    0.237414959305527    0.969053933407412  0.0000
  O2     O2        0.743108088940886    0.751740418370106    0.984220774934220  0.0000
  O2     O2        0.243471694192042    0.748712378166334    0.986097826406588  0.0000
  O3     O3        0.451865325577052    0.366657148902888    0.310382464700653  0.0000
  O3     O3        0.564494776356113    0.369071383933860    0.681286155093388  0.0000
  O2     O2        0.563542129348552    0.628937516240703    0.695292101573803  0.0000
  O2     O2        0.457202839971648    0.629956770343443    0.300447477267576  0.0000
  O2     O2        0.956313976579162    0.876636034991771    0.295655501449279  0.0000
  O2     O2        0.066168315822148    0.879216437429459    0.703080877566346  0.0000
  O2     O2        0.065028794648615    0.121360634758907    0.703794638484980  0.0000
  O2     O2        0.953920440162855    0.122188377337306    0.292184097221388  0.0000
  O3     O3        0.298879706427943    0.383810887947064    0.502225415014492  0.0000
  O3     O3        0.719356440371443    0.386547167997689    0.494615595796404  0.0000
  O2     O2        0.702010737042973    0.610674784982400    0.487674187810429  0.0000
  O2     O2        0.318164482801323    0.614452801748743    0.508622437690827  0.0000
  O2     O2        0.823201546258230    0.878316481117479    0.510184771980343  0.0000
  O2     O2        0.199490259891226    0.882440300754358    0.489166876828049  0.0000
  O2     O2        0.196296904399319    0.118399396750508    0.488196781000132  0.0000
  O2     O2        0.823019760338782    0.120475116437087    0.509043063063181  0.0000
  O2     O2        0.284353271648305    0.500115941010848    0.281255111835172  0.0000
  O2     O2        0.739409855240689    0.500270041128200    0.720924655466892  0.0000
  O2     O2        0.772968410555128    0.999221359376088    0.291096769230517  0.0000
  O2     O2        0.251876617432200    0.001408068386780    0.712234042386791  0.0000
  O3     O3        0.398536111738147    0.506194818932967    0.743083372835107  0.0000
  O3     O3        0.617244546006517    0.504835441477683    0.249920804497523  0.0000
  O2     O2        0.888098673081629    0.999527724409858    0.728535176517509  0.0000
  O2     O2        0.129389649793488    0.999652553734458    0.265012167382177  0.0000
