data_c00012.vasp
_audit_creation_method             Generated by GULP
_audit_author_name                 Salvador R. G. Balestra
_symmetry_space_group_name_H-M     'P 1             '
_symmetry_Int_Tables_number        1

loop_
_symmetry_equiv_pos_site_id
_symmetry_equiv_pos_as_xyz
_cell_length_a                       10.2558
_cell_length_b                       15.1722
_cell_length_c                        8.9048
_cell_angle_alpha                   90.1175
_cell_angle_beta                   105.1207
_cell_angle_gamma                   89.7856

loop_
_atom_site_label
_atom_site_type_symbol
_atom_site_fract_x
_atom_site_fract_y
_atom_site_fract_z
_atom_site_charge
  Ge     Ge        0.351599999999962    0.244500000000016    0.893900000000031  0.0000
  Ge     Ge        0.769890097525019    0.904325511697233    0.327125635197241  0.0000
  Si     Si        0.651215363843705    0.254886293652322    0.104146350035391  0.0000
  Si     Si        0.627004457749777    0.758554238221330    0.097976071850922  0.0000
  Si     Si        0.332979345511166    0.759680308609803    0.885540637461657  0.0000
  Si     Si        0.836340411159955    0.749750620194394    0.894838104799985  0.0000
  Si     Si        0.131985858199622    0.746730736014902    0.098795731444680  0.0000
  Si     Si        0.142758487165147    0.256840836068948    0.104425894238173  0.0000
  Si     Si        0.852005784536713    0.266978061429221    0.894261049683029  0.0000
  Si     Si        0.283815561051013    0.401805152428472    0.327029875185172  0.0000
  Si     Si        0.679340766144290    0.405121417237653    0.668800017829507  0.0000
  Si     Si        0.673763277907689    0.610043638422865    0.664221157402368  0.0000
  Si     Si        0.277958594172230    0.603449554377061    0.322659061615639  0.0000
  Si     Si        0.171786822472408    0.900612389404200    0.661222865570241  0.0000
  Si     Si        0.180893885258459    0.104347561493821    0.662755192721249  0.0000
  Si     Si        0.779086120002397    0.108140724798151    0.331430249438599  0.0000
  Si     Si        0.380248007373559    0.404258796786958    0.687251607092524  0.0000
  Si     Si        0.583636007366767    0.404023908485470    0.310620216518588  0.0000
  Si     Si        0.578962593441700    0.606944162540503    0.308113327393900  0.0000
  Si     Si        0.374251385992179    0.606547839675908    0.680278743213444  0.0000
  Si     Si        0.875482841810947    0.906134194621923    0.691900565271634  0.0000
  Si     Si        0.076741391377664    0.900230671945426    0.304386098716658  0.0000
  Si     Si        0.078788415168398    0.102512930733594    0.305784422164923  0.0000
  Si     Si        0.885119858963596    0.108806989036343    0.691209383780277  0.0000
  O3     O3        0.521613896655472    0.228982891688049    0.970991849518338  0.0000
  O2     O2        0.489026187760095    0.775403210525615    0.968297671924020  0.0000
  O2     O2        0.989915228919152    0.725893479921743    0.979314929324813  0.0000
  O2     O2        0.010693243939026    0.282671157398277    0.969243176792355  0.0000
  O3     O3        0.302254303628778    0.160637266833321    0.761180724704525  0.0000
  O2     O2        0.676674573217895    0.180874995952370    0.237937943927109  0.0000
  O3     O3        0.646484773955527    0.836344979714557    0.222130832854950  0.0000
  O2     O2        0.287072635302886    0.839940183765683    0.766646380022179  0.0000
  O2     O2        0.785857448669071    0.673183062482962    0.768303971574553  0.0000
  O2     O2        0.163540084783535    0.666295174575657    0.220565956136353  0.0000
  O2     O2        0.171283031912665    0.336021828682049    0.230041099917489  0.0000
  O2     O2        0.798267670560595    0.346616586524242    0.774770103693507  0.0000
  O3     O3        0.321352296699600    0.344625881790055    0.798515392629362  0.0000
  O2     O2        0.634231748853728    0.347583268490157    0.185374292344402  0.0000
  O2     O2        0.628457392286935    0.665621265186461    0.185567733347347  0.0000
  O2     O2        0.313146558720588    0.667886005086775    0.791300035242949  0.0000
  O2     O2        0.826418650885682    0.845232720210735    0.813545220605132  0.0000
  O2     O2        0.131162655497246    0.838572647375432    0.188093630118818  0.0000
  O2     O2        0.123918681842993    0.164977344732055    0.185219336187611  0.0000
  O2     O2        0.829381903563147    0.174141749933832    0.802048820753261  0.0000
  O3     O3        0.270312336092717    0.242755087699694    0.037800837732432  0.0000
  O2     O2        0.777831568800309    0.263897359934838    0.031059895902974  0.0000
  O2     O2        0.750740386913050    0.755549393774141    0.020154543627668  0.0000
  O2     O2        0.248095375420211    0.755098667862331    0.011049919986288  0.0000
  O2     O2        0.426233213783245    0.382934582410748    0.288308911133238  0.0000
  O2     O2        0.538906787502831    0.381893953868877    0.709112304167262  0.0000
  O2     O2        0.530521113876361    0.630764557552308    0.699049258151512  0.0000
  O2     O2        0.421063540595153    0.624889424732861    0.288944191698289  0.0000
  O3     O3        0.921577219031123    0.879511118560018    0.288601020196507  0.0000
  O2     O2        0.027773428606721    0.878716631819585    0.692283754605704  0.0000
  O2     O2        0.041183744413661    0.132204444894872    0.703396492486040  0.0000
  O2     O2        0.923505929605141    0.120471618673606    0.296305570981968  0.0000
  O2     O2        0.299056181274357    0.386495088687291    0.509004452649594  0.0000
  O2     O2        0.666870063157619    0.383587118948109    0.487681411079713  0.0000
  O2     O2        0.663668864260890    0.629979281709703    0.483545162636769  0.0000
  O2     O2        0.288038646469833    0.620965315415541    0.503454259942817  0.0000
  O3     O3        0.779572727670976    0.891882984005031    0.522092163090676  0.0000
  O2     O2        0.163528395825701    0.882443484480577    0.480928416827421  0.0000
  O2     O2        0.168236197971959    0.120551931017446    0.480431786663190  0.0000
  O2     O2        0.794905083065677    0.120290733616819    0.515305427949454  0.0000
  O2     O2        0.237671322503675    0.502055833841694    0.280720338874502  0.0000
  O2     O2        0.714137348485383    0.508087259210854    0.702021676791977  0.0000
  O3     O3        0.723764447984818    0.012116748525003    0.278532129366103  0.0000
  O2     O2        0.210309111725459    0.001678700989019    0.703196931858541  0.0000
  O2     O2        0.363269552835291    0.505918271299494    0.730680872978326  0.0000
  O2     O2        0.603392895491579    0.505559854843502    0.271219209102743  0.0000
  O2     O2        0.872019592122975    0.008250951978738    0.744555548385071  0.0000
  O2     O2        0.096428404257937    0.001346467111196    0.258430817725157  0.0000
