data_c00042.vasp
_audit_creation_method             Generated by GULP
_audit_author_name                 Salvador R. G. Balestra
_symmetry_space_group_name_H-M     'P 1             '
_symmetry_Int_Tables_number        1

loop_
_symmetry_equiv_pos_site_id
_symmetry_equiv_pos_as_xyz
_cell_length_a                       10.1953
_cell_length_b                       15.1814
_cell_length_c                        8.9294
_cell_angle_alpha                   90.3854
_cell_angle_beta                   105.3297
_cell_angle_gamma                   89.7516

loop_
_atom_site_label
_atom_site_type_symbol
_atom_site_fract_x
_atom_site_fract_y
_atom_site_fract_z
_atom_site_charge
  Ge     Ge        0.403900000000021    0.397900000000050    0.686299999999960  0.0000
  Ge     Ge        0.903903336596992    0.897897993745017    0.686300864455839  0.0000
  Si     Si        0.371938018396908    0.239393624701222    0.892175947340627  0.0000
  Si     Si        0.669810479881798    0.245254508482756    0.098337282704725  0.0000
  Si     Si        0.670052929446089    0.750212579763427    0.099994723838328  0.0000
  Si     Si        0.373439938455468    0.759782640486873    0.888875867568698  0.0000
  Si     Si        0.871952817086426    0.739391454586607    0.892177393043103  0.0000
  Si     Si        0.169826087492416    0.745258000236272    0.098333937339448  0.0000
  Si     Si        0.170036441013036    0.250215340418286    0.099995816590872  0.0000
  Si     Si        0.873423521488095    0.259780015534017    0.888875631291926  0.0000
  Si     Si        0.306770541830311    0.398296076535967    0.323347246334490  0.0000
  Si     Si        0.709472322071310    0.397680942470192    0.666006512562836  0.0000
  Si     Si        0.705299754952322    0.602361578554529    0.663528919827976  0.0000
  Si     Si        0.308573545989662    0.599277800897348    0.321768441761494  0.0000
  Si     Si        0.806772399532574    0.898294709643830    0.323348325090153  0.0000
  Si     Si        0.209476302868510    0.897681314673327    0.666007029225809  0.0000
  Si     Si        0.205298943098172    0.102361972735511    0.663528046110502  0.0000
  Si     Si        0.808572445387970    0.099276185942607    0.321769990312814  0.0000
  Si     Si        0.612983886795166    0.397144195478952    0.310979582351111  0.0000
  Si     Si        0.611223838817029    0.599363152463578    0.307867288503034  0.0000
  Si     Si        0.404946835569602    0.604143512789837    0.681582213475348  0.0000
  Si     Si        0.112986363249350    0.897144052987799    0.310980212834916  0.0000
  Si     Si        0.111221357261383    0.099362938798424    0.307866628894526  0.0000
  Si     Si        0.904948237091680    0.104141401122476    0.681584302705739  0.0000
  O2     O2        0.531868273124990    0.225896571007162    0.967924776587618  0.0000
  O2     O2        0.532240854827757    0.769722246640945    0.970354750766487  0.0000
  O2     O2        0.031894713354528    0.725902288680607    0.967893422180726  0.0000
  O2     O2        0.032212237036790    0.269726967436920    0.970386824948440  0.0000
  O2     O2        0.325199249288997    0.161919740674871    0.765471888774961  0.0000
  O2     O2        0.697534823951880    0.164922007181232    0.219593368155726  0.0000
  O2     O2        0.698145611159125    0.833728638868358    0.214888020340531  0.0000
  O2     O2        0.331959726976520    0.842703242738430    0.775251801019748  0.0000
  O2     O2        0.825201279942426    0.661916316457550    0.765478300838793  0.0000
  O2     O2        0.197537137875365    0.664923483037591    0.219588048359958  0.0000
  O2     O2        0.198143454177655    0.333730526961926    0.214888191486132  0.0000
  O2     O2        0.831953446819528    0.342699848508804    0.775248212722433  0.0000
  O3     O3        0.343330079402892    0.332997037583879    0.808937813121748  0.0000
  O2     O2        0.660093110322917    0.335799436533259    0.189106678676768  0.0000
  O2     O2        0.662739047112833    0.660755940023604    0.191685307564385  0.0000
  O2     O2        0.344552524599026    0.670655715629246    0.786599350547142  0.0000
  O3     O3        0.843328449368675    0.832993837846898    0.808933658056320  0.0000
  O2     O2        0.160093375953949    0.835800722194872    0.189103811265861  0.0000
  O2     O2        0.162738361097720    0.160757421674930    0.191688390819479  0.0000
  O2     O2        0.844555337603607    0.170652842766469    0.786602902696383  0.0000
  O2     O2        0.293415051905462    0.234872341745948    0.024268843524569  0.0000
  O2     O2        0.791518785372047    0.256296852678937    0.018446973296509  0.0000
  O2     O2        0.793457729578432    0.734868520223011    0.024302399451451  0.0000
  O2     O2        0.291559584032637    0.756303888312254    0.018476868864712  0.0000
  O2     O2        0.457492007986470    0.377475418303358    0.306641391324262  0.0000
  O3     O3        0.569465186869799    0.367941131034497    0.697741476744734  0.0000
  O2     O2        0.561736277205273    0.629055950922214    0.694614768349226  0.0000
  O2     O2        0.454038856475622    0.620522225205968    0.292773508270787  0.0000
  O2     O2        0.957495549490335    0.877474123901075    0.306646621885989  0.0000
  O3     O3        0.069468571560944    0.867938764104410    0.697739258116898  0.0000
  O2     O2        0.061736362610931    0.129055918309958    0.694615166923559  0.0000
  O2     O2        0.954036382890984    0.120522518446182    0.292773046022689  0.0000
  O3     O3        0.304378341447641    0.384713268210430    0.499004651283008  0.0000
  O2     O2        0.705322237808888    0.380705539939351    0.485479853371131  0.0000
  O2     O2        0.699489079686961    0.617715778080467    0.483441322601172  0.0000
  O2     O2        0.316452520755178    0.611819583143365    0.503080382897720  0.0000
  O3     O3        0.804379112209991    0.884712721929806    0.499005682643191  0.0000
  O2     O2        0.205328994346866    0.880706489212164    0.485480081407779  0.0000
  O2     O2        0.199485924586626    0.117714730597479    0.483440397758610  0.0000
  O2     O2        0.816452071209319    0.111815793472809    0.503082649417543  0.0000
  O2     O2        0.266197087667594    0.498967849645324    0.272178852034145  0.0000
  O2     O2        0.735698574697003    0.500567637269844    0.707000663987672  0.0000
  O2     O2        0.766197910541555    0.998966084403640    0.272177533142638  0.0000
  O2     O2        0.235698909371981    0.000568455093804    0.707001953910440  0.0000
  O3     O3        0.396300365371423    0.506415036750405    0.741557268046373  0.0000
  O2     O2        0.628711758343005    0.497889013680443    0.261981303908500  0.0000
  O3     O3        0.896305669556187    0.006412710989025    0.741561599864617  0.0000
  O2     O2        0.128709945536322    0.997889247337644    0.261979508224354  0.0000
