data_c00045.vasp
_audit_creation_method             Generated by GULP
_audit_author_name                 Salvador R. G. Balestra
_symmetry_space_group_name_H-M     'P 1             '
_symmetry_Int_Tables_number        1

loop_
_symmetry_equiv_pos_site_id
_symmetry_equiv_pos_as_xyz
_cell_length_a                       10.2000
_cell_length_b                       15.1802
_cell_length_c                        8.9264
_cell_angle_alpha                   89.9999
_cell_angle_beta                   105.3067
_cell_angle_gamma                   89.9999

loop_
_atom_site_label
_atom_site_type_symbol
_atom_site_fract_x
_atom_site_fract_y
_atom_site_fract_z
_atom_site_charge
  Ge     Ge        0.403900000000021    0.397900000000050    0.686299999999960  0.0000
  Ge     Ge        0.903897783012213    0.102130622175556    0.686309592639814  0.0000
  Si     Si        0.374618315932308    0.239681448680642    0.893660860457817  0.0000
  Si     Si        0.671931359449813    0.248202402535593    0.099837073196150  0.0000
  Si     Si        0.669753457584002    0.753407737542202    0.101553074980257  0.0000
  Si     Si        0.372780167960523    0.760066373262823    0.890464107849595  0.0000
  Si     Si        0.872782496021448    0.739953572021402    0.890466148877984  0.0000
  Si     Si        0.169753479035529    0.746617035285114    0.101554690728237  0.0000
  Si     Si        0.171933881485565    0.251832985183182    0.099836834911427  0.0000
  Si     Si        0.874620138132592    0.260353306740817    0.893668162705120  0.0000
  Si     Si        0.306629608366818    0.400242397589766    0.323402823415943  0.0000
  Si     Si        0.709696410985697    0.396776994430453    0.666718879042726  0.0000
  Si     Si        0.707748899490203    0.601489955962571    0.665680808775029  0.0000
  Si     Si        0.311394917622043    0.601220283378281    0.324992647673394  0.0000
  Si     Si        0.811386391233623    0.898809247617895    0.324988013673330  0.0000
  Si     Si        0.207753942577651    0.898535711136181    0.665678692758433  0.0000
  Si     Si        0.209705199829089    0.103249914647574    0.666722375206028  0.0000
  Si     Si        0.806624256842206    0.099791323581049    0.323400806636442  0.0000
  Si     Si        0.612821808085966    0.398865385224198    0.312493225103833  0.0000
  Si     Si        0.613826102290703    0.601124452953090    0.309361120617468  0.0000
  Si     Si        0.408090853095815    0.604067143970068    0.684803150539252  0.0000
  Si     Si        0.908082264217310    0.895958880074663    0.684804086210505  0.0000
  Si     Si        0.113826309143250    0.898905086681935    0.309354040500057  0.0000
  Si     Si        0.112824444156124    0.101165831761334    0.312485663020159  0.0000
  O2     O2        0.535544385991186    0.230363108203589    0.966452805380699  0.0000
  O2     O2        0.529692306160737    0.774494523871356    0.976690337452901  0.0000
  O2     O2        0.029694271162128    0.725523474362721    0.976693989524272  0.0000
  O2     O2        0.035544180624408    0.269679516450903    0.966460624323296  0.0000
  O2     O2        0.332409174655118    0.160539775010609    0.770247353152987  0.0000
  O2     O2        0.698966414490283    0.163807169136371    0.212111761034268  0.0000
  O2     O2        0.699777584696302    0.832626416204552    0.225754817706503  0.0000
  O2     O2        0.327579630095239    0.841527982396870    0.773498410332204  0.0000
  O2     O2        0.827583174416838    0.658491004291326    0.773501918102991  0.0000
  O2     O2        0.199780880748252    0.667404244939631    0.225769288622178  0.0000
  O2     O2        0.198973897867535    0.336224390545988    0.212118930151595  0.0000
  O2     O2        0.832404890371049    0.339490162619678    0.770245159724236  0.0000
  O3     O3        0.341003450611582    0.332400701275140    0.807166595002315  0.0000
  O2     O2        0.659470531340776    0.336565249405090    0.193173226133004  0.0000
  O2     O2        0.665270523751365    0.661698359511966    0.190260742493599  0.0000
  O2     O2        0.349949550466270    0.670208030439784    0.791296917270264  0.0000
  O2     O2        0.849954916284337    0.829812353236283    0.791300345846020  0.0000
  O2     O2        0.165262001382172    0.838330031154495    0.190248407465496  0.0000
  O2     O2        0.159473744072978    0.163467108417185    0.193166593296950  0.0000
  O3     O3        0.841015867762067    0.167630486268067    0.807187021203755  0.0000
  O2     O2        0.296940186814573    0.234410871930611    0.027259086341979  0.0000
  O2     O2        0.796939657098783    0.265627828379912    0.027263999284113  0.0000
  O2     O2        0.788462290182623    0.745032180143100    0.016992277123971  0.0000
  O2     O2        0.288462173417002    0.754987963068571    0.016992520324206  0.0000
  O2     O2        0.457438271639161    0.379463405662612    0.308277239800718  0.0000
  O3     O3        0.569366875666020    0.367398065881241    0.698658031219443  0.0000
  O2     O2        0.564630925890745    0.628629061806943    0.696525492131945  0.0000
  O2     O2        0.456953313850046    0.622701944305426    0.295496959712113  0.0000
  O2     O2        0.956939192604112    0.877354414526369    0.295454101240787  0.0000
  O2     O2        0.064639341328526    0.871427801369579    0.696563948869261  0.0000
  O3     O3        0.069382680808752    0.132603828969957    0.698709654929698  0.0000
  O2     O2        0.957423574600349    0.120544839239914    0.308217825424659  0.0000
  O3     O3        0.303826411064795    0.385543319992218    0.498946016472292  0.0000
  O2     O2        0.705226570929357    0.381189450471972    0.486223763535698  0.0000
  O2     O2        0.702561780706619    0.618213654776016    0.485492669237106  0.0000
  O2     O2        0.319445874607756    0.612214327291432    0.506483155737012  0.0000
  O2     O2        0.819461330778676    0.887783920822494    0.506478777693884  0.0000
  O2     O2        0.202535949453204    0.881788958782857    0.485488309328422  0.0000
  O2     O2        0.205196238096197    0.118867251792795    0.486223193336144  0.0000
  O3     O3        0.803854279555920    0.114523018009589    0.498949122862016  0.0000
  O2     O2        0.267691763883469    0.501325527658626    0.273545634767560  0.0000
  O2     O2        0.736832572557835    0.499402437470896    0.708402187096989  0.0000
  O2     O2        0.767650341786116    0.998706236078920    0.273588769930906  0.0000
  O2     O2        0.236885079312291    0.000623325137102    0.708367497931224  0.0000
  O3     O3        0.398210823195740    0.505933477564595    0.743692644166175  0.0000
  O2     O2        0.629736431421003    0.499668361420672    0.263325065639954  0.0000
  O3     O3        0.898142707749656    0.994093863727608    0.743662963341267  0.0000
  O2     O2        0.129789275165362    0.000361869604380    0.263352372264026  0.0000
