data_c00034.vasp
_audit_creation_method             Generated by GULP
_audit_author_name                 Salvador R. G. Balestra
_symmetry_space_group_name_H-M     'P 1             '
_symmetry_Int_Tables_number        1

loop_
_symmetry_equiv_pos_site_id
_symmetry_equiv_pos_as_xyz
_cell_length_a                       10.2146
_cell_length_b                       15.1846
_cell_length_c                        8.9086
_cell_angle_alpha                   89.8871
_cell_angle_beta                   105.2665
_cell_angle_gamma                   90.2099

loop_
_atom_site_label
_atom_site_type_symbol
_atom_site_fract_x
_atom_site_fract_y
_atom_site_fract_z
_atom_site_charge
  Ge     Ge        0.306699999999978    0.397900000000050    0.331699999999955  0.0000
  Ge     Ge        0.410392465594469    0.603997353885190    0.696503173675667  0.0000
  Si     Si        0.369757943087672    0.243080531554836    0.903572240472946  0.0000
  Si     Si        0.667391873921359    0.243565756433468    0.110542511714662  0.0000
  Si     Si        0.672883869530645    0.751183853364267    0.108229731683858  0.0000
  Si     Si        0.375214055775359    0.762701902542039    0.902877665124265  0.0000
  Si     Si        0.877749746521078    0.740689310249307    0.899125143237728  0.0000
  Si     Si        0.173205154839046    0.750222563801073    0.111114762709569  0.0000
  Si     Si        0.160424579444830    0.252263500887463    0.106018801973605  0.0000
  Si     Si        0.865537693204312    0.254574959896836    0.893765725463970  0.0000
  Si     Si        0.705891979606649    0.398203311117160    0.672058526740112  0.0000
  Si     Si        0.714095593723067    0.602408339551781    0.673318599687638  0.0000
  Si     Si        0.310459329321029    0.601458639085262    0.330743457443638  0.0000
  Si     Si        0.810784373214916    0.896729628926107    0.335109719386516  0.0000
  Si     Si        0.209392946163622    0.900568386091068    0.676931827451182  0.0000
  Si     Si        0.203607174915539    0.104365802607833    0.674102810183037  0.0000
  Si     Si        0.806871843182168    0.097549570307238    0.332210351171675  0.0000
  Si     Si        0.406822353700811    0.400023640859884    0.698258310789850  0.0000
  Si     Si        0.613080531607257    0.395852494299987    0.316295817407271  0.0000
  Si     Si        0.614212447818981    0.599546729794236    0.317796089400286  0.0000
  Si     Si        0.908097807464073    0.897574680628829    0.694516379654905  0.0000
  Si     Si        0.113380250955021    0.899045718434854    0.321428838087150  0.0000
  Si     Si        0.109559833946229    0.101621061484202    0.317965004816496  0.0000
  Si     Si        0.902483612279438    0.099260539054691    0.691179177069266  0.0000
  O2     O2        0.525507531059921    0.224084167550770    0.987962511008620  0.0000
  O2     O2        0.535445148027493    0.772785983974976    0.978959630906555  0.0000
  O2     O2        0.035750522210475    0.728365639670901    0.981757269962090  0.0000
  O2     O2        0.023734035657057    0.268483996203203    0.972742428547958  0.0000
  O2     O2        0.318542179960898    0.164456954507971    0.782033141033299  0.0000
  O2     O2        0.694751380016442    0.162815436180201    0.232254500172657  0.0000
  O2     O2        0.701531845043374    0.829769496922124    0.233848719432372  0.0000
  O2     O2        0.329421363291805    0.843395293001553    0.783232047677591  0.0000
  O2     O2        0.835903519088858    0.660371481235877    0.778295616510599  0.0000
  O2     O2        0.202827724379676    0.669933908536583    0.231759680973223  0.0000
  O3     O3        0.180367845379573    0.329802036423716    0.230061065312242  0.0000
  O2     O2        0.819666152237708    0.336625152656725    0.778574591531322  0.0000
  O2     O2        0.354268674031172    0.335029454758630    0.811857924388258  0.0000
  O2     O2        0.670189593069611    0.335745978752236    0.200033562337193  0.0000
  O2     O2        0.662559689819546    0.659091320206833    0.194045101459991  0.0000
  O3     O3        0.344416034525011    0.671722778175422    0.811069673463099  0.0000
  O2     O2        0.852435257886711    0.833349353787255    0.806509478721579  0.0000
  O2     O2        0.164149223970348    0.840498820608626    0.200521320488793  0.0000
  O2     O2        0.159137433598818    0.159707311737196    0.194287162586502  0.0000
  O2     O2        0.841555540181080    0.162954075415363    0.798585924021561  0.0000
  O2     O2        0.286577960448926    0.250041350804141    0.031369275842596  0.0000
  O2     O2        0.784998958577727    0.250014089847687    0.023841131759037  0.0000
  O2     O2        0.794052589044079    0.740921276547326    0.027270063380007  0.0000
  O2     O2        0.296840530960493    0.763958945788732    0.035503897201515  0.0000
  O3     O3        0.460956380409088    0.366604375303972    0.305164225271783  0.0000
  O2     O2        0.558785359694390    0.372818462983916    0.692663520768698  0.0000
  O3     O3        0.574660614552695    0.634758991064040    0.703540621926050  0.0000
  O2     O2        0.462161604117356    0.624716172581792    0.318772559045665  0.0000
  O2     O2        0.955369815029661    0.879626228838134    0.301642975669787  0.0000
  O2     O2        0.066957839836641    0.878267441764265    0.714638932704183  0.0000
  O2     O2        0.060100042330484    0.122703231963465    0.710844645777767  0.0000
  O2     O2        0.950695135592050    0.117785466099161    0.297813917228901  0.0000
  O3     O3        0.309743362039245    0.394340654891654    0.525816321221230  0.0000
  O2     O2        0.705682230694126    0.383992283680280    0.492709668804152  0.0000
  O2     O2        0.710715954730303    0.614172546224368    0.491469690506722  0.0000
  O3     O3        0.308910432753438    0.607442550685681    0.508983111010318  0.0000
  O2     O2        0.823014286853795    0.880903226453852    0.517062803118410  0.0000
  O2     O2        0.198224248420412    0.877369527914236    0.497342197015657  0.0000
  O2     O2        0.192607792781643    0.126550479644805    0.493729360078135  0.0000
  O2     O2        0.817733326931413    0.113151002608475    0.513445527912846  0.0000
  O3     O3        0.271102048894686    0.504348510872367    0.266465961130363  0.0000
  O2     O2        0.738774323476133    0.499805079918919    0.720066841566180  0.0000
  O2     O2        0.762998176389504    0.996602793491079    0.288453264786792  0.0000
  O2     O2        0.245346568617539    0.002995991402318    0.708821879372360  0.0000
  O3     O3        0.408558364957421    0.497672295782331    0.764367873627502  0.0000
  O2     O2        0.618973050815272    0.497980002428420    0.266366699494568  0.0000
  O2     O2        0.888551734845117    0.998271433138937    0.742117783060954  0.0000
  O2     O2        0.136030383355107    0.000480563454817    0.282884756854061  0.0000
