data_c00008.vasp
_audit_creation_method             Generated by GULP
_audit_author_name                 Salvador R. G. Balestra
_symmetry_space_group_name_H-M     'P 1             '
_symmetry_Int_Tables_number        1

loop_
_symmetry_equiv_pos_site_id
_symmetry_equiv_pos_as_xyz
_cell_length_a                       10.2694
_cell_length_b                       15.1749
_cell_length_c                        8.8950
_cell_angle_alpha                   90.1864
_cell_angle_beta                   105.0951
_cell_angle_gamma                   89.7652

loop_
_atom_site_label
_atom_site_type_symbol
_atom_site_fract_x
_atom_site_fract_y
_atom_site_fract_z
_atom_site_charge
  Ge     Ge        0.351599999999962    0.244500000000016    0.893900000000031  0.0000
  Ge     Ge        0.281320424190441    0.398423476152409    0.323124022966624  0.0000
  Si     Si        0.652268927588124    0.244583788406478    0.099259978587709  0.0000
  Si     Si        0.642357222715823    0.753589832521335    0.097078250420093  0.0000
  Si     Si        0.347631841822677    0.761567190003877    0.886471762538763  0.0000
  Si     Si        0.846667804506225    0.742173438687524    0.885974365254995  0.0000
  Si     Si        0.141247057130892    0.747172845501433    0.093867654348524  0.0000
  Si     Si        0.137967695466366    0.252990269322920    0.097474782337214  0.0000
  Si     Si        0.849102476812915    0.257562556269752    0.885391804144420  0.0000
  Si     Si        0.680648847041330    0.399137006316933    0.663401903449985  0.0000
  Si     Si        0.685202729347288    0.603025258980774    0.658584406020850  0.0000
  Si     Si        0.287025497430004    0.603862884101826    0.319371176846169  0.0000
  Si     Si        0.785220029571135    0.897366211388347    0.324729514533720  0.0000
  Si     Si        0.183124604165654    0.899095874518254    0.659768310059615  0.0000
  Si     Si        0.180770733140313    0.103824224521524    0.657502644280720  0.0000
  Si     Si        0.782396728096954    0.097869987916464    0.323675084352331  0.0000
  Si     Si        0.383234703949740    0.404534571810731    0.689840731845763  0.0000
  Si     Si        0.586559634634798    0.396485513622674    0.304040118935164  0.0000
  Si     Si        0.587346039996291    0.600207559693852    0.301508027863744  0.0000
  Si     Si        0.387813787502534    0.606908471237527    0.678717766264932  0.0000
  Si     Si        0.886259198362997    0.898599991243020    0.683928848606197  0.0000
  Si     Si        0.085100698223059    0.897978055010070    0.303554296346130  0.0000
  Si     Si        0.081377509888323    0.099782184668189    0.301375769721950  0.0000
  Si     Si        0.883581260315405    0.101002403660829    0.682336181110971  0.0000
  O3     O3        0.520292479901714    0.223074574062517    0.966955779755194  0.0000
  O2     O2        0.501504245425133    0.778172122850425    0.978086841696467  0.0000
  O2     O2        0.000723782423657    0.722652502964418    0.974223082862986  0.0000
  O2     O2        0.008197701133223    0.272820168129176    0.955410169364284  0.0000
  O3     O3        0.296955283892856    0.163477976122301    0.756750771659397  0.0000
  O2     O2        0.673815251564009    0.164962731970172    0.223626966494431  0.0000
  O2     O2        0.675441640169563    0.830637282376468    0.226086510543226  0.0000
  O2     O2        0.302689326961172    0.841962795601107    0.766829680196660  0.0000
  O2     O2        0.801828663204898    0.663731435953953    0.761520785463943  0.0000
  O2     O2        0.176630622066815    0.671121834607505    0.222873837906491  0.0000
  O3     O3        0.155072358580995    0.330855425094455    0.222155658125923  0.0000
  O2     O2        0.795631758360288    0.337982086292805    0.768531597283016  0.0000
  O3     O3        0.329884510524474    0.347781882353791    0.809992739521499  0.0000
  O2     O2        0.643219904765295    0.336478842320495    0.186912611082061  0.0000
  O2     O2        0.637973564967865    0.660162611541158    0.180667609991222  0.0000
  O2     O2        0.331297570324396    0.670404889945118    0.790720943945213  0.0000
  O2     O2        0.831355439619958    0.835899648643465    0.797852367150144  0.0000
  O2     O2        0.133758917663942    0.839551751121971    0.179403917339334  0.0000
  O2     O2        0.125453577691696    0.159391835541836    0.176726574734554  0.0000
  O2     O2        0.824252901588921    0.165039719863076    0.792021388178409  0.0000
  O3     O3        0.271410685227196    0.246034507210215    0.038884176027360  0.0000
  O2     O2        0.778102288889328    0.253615914995859    0.024839007025633  0.0000
  O2     O2        0.757653652467783    0.745588047135072    0.007905323908454  0.0000
  O2     O2        0.257206510945146    0.755840800983320    0.006298181772653  0.0000
  O3     O3        0.432324748471741    0.371775243425002    0.283250097094351  0.0000
  O2     O2        0.537644087165366    0.376953109436742    0.696751279456632  0.0000
  O2     O2        0.543267950865472    0.630247311949390    0.691304148091388  0.0000
  O2     O2        0.432144688508549    0.622795379725647    0.288453054988827  0.0000
  O2     O2        0.928002893650702    0.880218688878977    0.287278229992694  0.0000
  O2     O2        0.042888845997223    0.876426730896217    0.700309591897162  0.0000
  O2     O2        0.039677773442484    0.125033363219898    0.699169584675562  0.0000
  O2     O2        0.924412416140977    0.115011076262356    0.286362467954118  0.0000
  O3     O3        0.292216020693072    0.386662504061074    0.517672505018217  0.0000
  O2     O2        0.671184895892083    0.380772201175828    0.482329348960173  0.0000
  O2     O2        0.677205173931638    0.617895506956604    0.476907483853502  0.0000
  O2     O2        0.298251122827014    0.617195973913060    0.502357464669498  0.0000
  O2     O2        0.799693053399383    0.882142870796764    0.507386068631182  0.0000
  O2     O2        0.170606269900133    0.876383776259429    0.479153793273703  0.0000
  O2     O2        0.166287722535714    0.124003287980187    0.475708917913327  0.0000
  O2     O2        0.796103410317654    0.114697160721228    0.505704462321491  0.0000
  O3     O3        0.240714140409684    0.506053079734484    0.268657185216515  0.0000
  O2     O2        0.718827407783974    0.501071335350877    0.703275581116830  0.0000
  O2     O2        0.735769654153368    0.997376316826145    0.280210537044842  0.0000
  O2     O2        0.217921796327118    0.001443759343846    0.692277580266603  0.0000
  O2     O2        0.377143661099868    0.507256730858748    0.734298789186631  0.0000
  O2     O2        0.600645039656986    0.498157707855928    0.257463369292266  0.0000
  O2     O2        0.870815711120226    0.999936040697952    0.732833142149381  0.0000
  O2     O2        0.108672077142108    0.998826593531121    0.263169132580300  0.0000
