data_c00029.vasp
_audit_creation_method             Generated by GULP
_audit_author_name                 Salvador R. G. Balestra
_symmetry_space_group_name_H-M     'P 1             '
_symmetry_Int_Tables_number        1

loop_
_symmetry_equiv_pos_site_id
_symmetry_equiv_pos_as_xyz
_cell_length_a                       10.2879
_cell_length_b                       15.1748
_cell_length_c                        8.9017
_cell_angle_alpha                   90.0310
_cell_angle_beta                   105.0860
_cell_angle_gamma                   90.1518

loop_
_atom_site_label
_atom_site_type_symbol
_atom_site_fract_x
_atom_site_fract_y
_atom_site_fract_z
_atom_site_charge
  Ge     Ge        0.306699999999978    0.397900000000050    0.331699999999955  0.0000
  Ge     Ge        0.208587605336112    0.109009580422953    0.667128966364668  0.0000
  Si     Si        0.358665339772556    0.251779611831145    0.901830876629340  0.0000
  Si     Si        0.650848329521169    0.246175941577409    0.108300029477396  0.0000
  Si     Si        0.652135491982313    0.759547992951986    0.103533461271838  0.0000
  Si     Si        0.357517611979017    0.759564176076264    0.893710573532567  0.0000
  Si     Si        0.857275387994965    0.748265777495034    0.892825932226143  0.0000
  Si     Si        0.151976789604183    0.746716330444629    0.103439073614997  0.0000
  Si     Si        0.141140143648622    0.257467176495172    0.095700531145047  0.0000
  Si     Si        0.845361896374878    0.258138638432096    0.887549586070379  0.0000
  Si     Si        0.706315064158976    0.404959689961579    0.666677908032491  0.0000
  Si     Si        0.706867662570279    0.606404285267022    0.665769450638143  0.0000
  Si     Si        0.308567581136717    0.605435558799986    0.328371179565108  0.0000
  Si     Si        0.810472793807971    0.900035767634596    0.330613934034670  0.0000
  Si     Si        0.208095466163172    0.902226622390925    0.669114701330480  0.0000
  Si     Si        0.810336148077774    0.102385662851743    0.327920861278191  0.0000
  Si     Si        0.407862715843521    0.404074224546600    0.693605921316276  0.0000
  Si     Si        0.610897782543407    0.401236193680421    0.309688571874349  0.0000
  Si     Si        0.606718207364430    0.604070613802437    0.307110999442002  0.0000
  Si     Si        0.409065207730131    0.606647228741830    0.686896683323061  0.0000
  Si     Si        0.909170380093592    0.902656106431792    0.688473907361702  0.0000
  Si     Si        0.108014913428043    0.900656185441675    0.309960685896277  0.0000
  Si     Si        0.108532673279109    0.102986732551942    0.303136468391983  0.0000
  Si     Si        0.903979085816976    0.105860094842641    0.685672696581498  0.0000
  O2     O2        0.494245525084265    0.228690459354512    0.030850435913186  0.0000
  O2     O2        0.501905199544280    0.781766667819896    0.006886992781620  0.0000
  O2     O2        0.001388228858045    0.725711712914854    0.005414042232394  0.0000
  O2     O2        0.989027613476163    0.277055008553277    0.003158850616149  0.0000
  O3     O3        0.332168296551301    0.177659636562749    0.770531607549330  0.0000
  O2     O2        0.697966223655756    0.165157225304061    0.225056422542998  0.0000
  O2     O2        0.696072439385311    0.836764173550814    0.230428417999032  0.0000
  O2     O2        0.320386806046559    0.836837479131364    0.766760876072283  0.0000
  O2     O2        0.820581966830055    0.670832181649585    0.764845924758947  0.0000
  O2     O2        0.195386613473179    0.669636575916220    0.229404088921266  0.0000
  O3     O3        0.181774068019287    0.331355390748548    0.226314169395854  0.0000
  O2     O2        0.816196392972141    0.339669610530494    0.768144132750038  0.0000
  O2     O2        0.369856513451355    0.347165316618433    0.827014903227931  0.0000
  O2     O2        0.673374732503062    0.338739308276240    0.200806003456318  0.0000
  O2     O2        0.660560057354644    0.665867351325799    0.190707233643651  0.0000
  O2     O2        0.357161091525296    0.667243244835378    0.805449383639173  0.0000
  O2     O2        0.857055769798729    0.841561027220414    0.806892805999178  0.0000
  O2     O2        0.161953900769037    0.839412887530051    0.193573869414371  0.0000
  O2     O2        0.153471962572044    0.161212785520060    0.175323954512509  0.0000
  O2     O2        0.841141261131833    0.166307203404727    0.796226159893544  0.0000
  O2     O2        0.235226159456122    0.257496434461513    0.979017262689835  0.0000
  O2     O2        0.731230018715855    0.250853689315434    0.978204456533827  0.0000
  O2     O2        0.747919458404998    0.754705090228358    0.989745955303672  0.0000
  O2     O2        0.248026117600082    0.752104212902441    0.990156550131204  0.0000
  O3     O3        0.458442400080616    0.372476688234555    0.294969121438688  0.0000
  O2     O2        0.560402674892746    0.383400256922989    0.690573877401978  0.0000
  O2     O2        0.564393428196682    0.629222655998910    0.699350656369412  0.0000
  O2     O2        0.451880228471383    0.627113571497711    0.294319764568576  0.0000
  O2     O2        0.953061112160297    0.876491465483818    0.297682906534652  0.0000
  O2     O2        0.064121305418135    0.880514094874843    0.701081098963626  0.0000
  O3     O3        0.056514184586144    0.134497686124884    0.702968253418000  0.0000
  O2     O2        0.954765082095133    0.125571628083632    0.300409232369932  0.0000
  O3     O3        0.312651394832525    0.382181972448176    0.525609512922555  0.0000
  O2     O2        0.700653858370372    0.390689293095045    0.486204450813133  0.0000
  O2     O2        0.696054147930736    0.619232929259143    0.483131702330738  0.0000
  O2     O2        0.320237601158643    0.620887069733556    0.511018505847332  0.0000
  O2     O2        0.819894275053721    0.886249632680259    0.512742209717329  0.0000
  O2     O2        0.197199394832864    0.888651711740692    0.486218042491722  0.0000
  O3     O3        0.201565060820302    0.122994002661685    0.472852257653292  0.0000
  O2     O2        0.816620796354089    0.117845418701322    0.508295035969047  0.0000
  O3     O3        0.267095942023550    0.506108993660815    0.282898369877362  0.0000
  O2     O2        0.747693357920829    0.505779784863011    0.714813674036181  0.0000
  O2     O2        0.771808747076661    0.000961109923063    0.282710834136564  0.0000
  O3     O3        0.250072357345027    0.001218517273043    0.717865499264025  0.0000
  O2     O2        0.393695483482162    0.506127250214628    0.736224820757695  0.0000
  O2     O2        0.617173221786798    0.502707769732233    0.256811365450792  0.0000
  O2     O2        0.896974373336765    0.004124940480539    0.736399284326201  0.0000
  O2     O2        0.120502484388854    0.001088851138257    0.257977404911419  0.0000
