data_c00010.vasp
_audit_creation_method             Generated by GULP
_audit_author_name                 Salvador R. G. Balestra
_symmetry_space_group_name_H-M     'P 1             '
_symmetry_Int_Tables_number        1

loop_
_symmetry_equiv_pos_site_id
_symmetry_equiv_pos_as_xyz
_cell_length_a                       10.3000
_cell_length_b                       15.1535
_cell_length_c                        8.9034
_cell_angle_alpha                   90.2144
_cell_angle_beta                   105.0806
_cell_angle_gamma                   89.8694

loop_
_atom_site_label
_atom_site_type_symbol
_atom_site_fract_x
_atom_site_fract_y
_atom_site_fract_z
_atom_site_charge
  Ge     Ge        0.351599999999962    0.244500000000016    0.893900000000031  0.0000
  Ge     Ge        0.690688649211677    0.602591477371536    0.664610648233281  0.0000
  Si     Si        0.650094917293555    0.241704665494670    0.103966295178362  0.0000
  Si     Si        0.629395012210686    0.754450857952911    0.097960410088588  0.0000
  Si     Si        0.334937839401625    0.758213275692657    0.891408161897272  0.0000
  Si     Si        0.839664344075473    0.745591035703761    0.895117822668223  0.0000
  Si     Si        0.133754812261703    0.744268507200828    0.104572439841922  0.0000
  Si     Si        0.142530781141144    0.255442982393536    0.105156602633548  0.0000
  Si     Si        0.851797298790470    0.255928098490400    0.895445887783643  0.0000
  Si     Si        0.287789624991790    0.398660874397320    0.329291764062378  0.0000
  Si     Si        0.682506190020640    0.394839187907525    0.669832575628270  0.0000
  Si     Si        0.291110822769891    0.601037088399542    0.327300866062827  0.0000
  Si     Si        0.789939783272332    0.894675927822112    0.329894983027310  0.0000
  Si     Si        0.185127278834854    0.899159497782432    0.667246258738493  0.0000
  Si     Si        0.184391059722754    0.102233697216690    0.663146500809572  0.0000
  Si     Si        0.786021703137957    0.097386448342686    0.330893306290291  0.0000
  Si     Si        0.386434946181185    0.402281920051620    0.688011991634351  0.0000
  Si     Si        0.585283291795733    0.395657217359467    0.308805907835836  0.0000
  Si     Si        0.590137524933450    0.598062738351521    0.302225222395564  0.0000
  Si     Si        0.388827054370831    0.607259269801138    0.682511726857124  0.0000
  Si     Si        0.889211179510365    0.897585764249428    0.687788825358851  0.0000
  Si     Si        0.088721172316695    0.898405722516276    0.308986701702971  0.0000
  Si     Si        0.083024355601899    0.099464882314622    0.305437453707519  0.0000
  Si     Si        0.888432140638179    0.101389906297533    0.687693700616138  0.0000
  O3     O3        0.518506625674483    0.221243651532292    0.971447126720700  0.0000
  O2     O2        0.478255344840576    0.779249007733951    0.007586901929021  0.0000
  O2     O2        0.979416976564779    0.727446052756915    0.019334797110101  0.0000
  O2     O2        0.007698905009535    0.278000221927161    0.973044333298907  0.0000
  O3     O3        0.300824662870607    0.163465970023895    0.755942064375779  0.0000
  O2     O2        0.674932567417905    0.161482496428210    0.227170395391888  0.0000
  O2     O2        0.679343944545989    0.829431949942537    0.228481005762350  0.0000
  O2     O2        0.302048955404215    0.837877553031468    0.768141379853426  0.0000
  O3     O3        0.817469109578471    0.667590593912068    0.770872108602487  0.0000
  O2     O2        0.179549156003756    0.663135230046483    0.221222981609715  0.0000
  O2     O2        0.171935485788149    0.335412130038589    0.230258560025639  0.0000
  O2     O2        0.796503113781157    0.330546480209807    0.767575258843165  0.0000
  O3     O3        0.327287356951630    0.346655303772549    0.804591499056670  0.0000
  O2     O2        0.636545067513016    0.332541557447264    0.192827427796887  0.0000
  O2     O2        0.634121578495144    0.658675110818513    0.176925134904948  0.0000
  O2     O2        0.331669124295194    0.665877575446187    0.801046738172128  0.0000
  O2     O2        0.836571174254328    0.839137296613210    0.808403950224632  0.0000
  O2     O2        0.149008636714568    0.835740233493951    0.199520101481270  0.0000
  O2     O2        0.128803623498028    0.163279277417061    0.187742500790330  0.0000
  O2     O2        0.835397991532781    0.161512118714581    0.807658502078840  0.0000
  O3     O3        0.267798314300678    0.243381235418264    0.034900030944842  0.0000
  O2     O2        0.775023300073170    0.253373972685114    0.029529333593594  0.0000
  O2     O2        0.719811807013769    0.748293609668321    0.978236774272396  0.0000
  O2     O2        0.222224339830250    0.751169044780982    0.983474236604600  0.0000
  O2     O2        0.429313664488859    0.374356081415594    0.293523055329284  0.0000
  O2     O2        0.539822487989080    0.370953896631853    0.703347076952419  0.0000
  O3     O3        0.539366101791226    0.636567387002672    0.693619589351412  0.0000
  O2     O2        0.437234598758903    0.621261087475034    0.302529920725713  0.0000
  O2     O2        0.932034510846390    0.877129331636380    0.291122883638426  0.0000
  O2     O2        0.044605324687285    0.874597412417816    0.704066383138672  0.0000
  O2     O2        0.043505165580584    0.126090338255243    0.702319865470954  0.0000
  O2     O2        0.927221158893434    0.116275089171664    0.293310038900482  0.0000
  O2     O2        0.298796459087357    0.385881330281376    0.511405041640081  0.0000
  O2     O2        0.671624625043361    0.383001594091300    0.486206348219446  0.0000
  O3     O3        0.686741700506170    0.614282475190794    0.470961531643411  0.0000
  O2     O2        0.295894579760830    0.619126471320136    0.507117286790951  0.0000
  O2     O2        0.803206379760187    0.876968989745063    0.511946948395605  0.0000
  O2     O2        0.173338091372222    0.882768171216287    0.485748816461652  0.0000
  O2     O2        0.170267520179147    0.116719008418578    0.480483288763657  0.0000
  O2     O2        0.799133046239058    0.117622228074835    0.512206937507940  0.0000
  O2     O2        0.249883847374160    0.499908200706397    0.282230153001417  0.0000
  O3     O3        0.722153793474266    0.494201538005813    0.719221896646856  0.0000
  O2     O2        0.743418966018520    0.995738514968874    0.291363440092145  0.0000
  O2     O2        0.221359138670906    0.000741419982958    0.709306960042935  0.0000
  O2     O2        0.386087694742594    0.505259405327241    0.731676771441517  0.0000
  O2     O2        0.600318679289817    0.495723369703854    0.254857475413024  0.0000
  O2     O2        0.874166423820860    0.999575510115323    0.731333567721341  0.0000
  O2     O2        0.104702716118308    0.998744337404729    0.257491744781936  0.0000
