data_c00002.vasp
_audit_creation_method             Generated by GULP
_audit_author_name                 Salvador R. G. Balestra
_symmetry_space_group_name_H-M     'P 1             '
_symmetry_Int_Tables_number        1

loop_
_symmetry_equiv_pos_site_id
_symmetry_equiv_pos_as_xyz
_cell_length_a                       10.2892
_cell_length_b                       15.1506
_cell_length_c                        8.9035
_cell_angle_alpha                   90.2367
_cell_angle_beta                   105.0824
_cell_angle_gamma                   89.4753

loop_
_atom_site_label
_atom_site_type_symbol
_atom_site_fract_x
_atom_site_fract_y
_atom_site_fract_z
_atom_site_charge
  Ge     Ge        0.351599999999962    0.244500000000016    0.893900000000031  0.0000
  Ge     Ge        0.612509180687486    0.762097006361157    0.099974404823526  0.0000
  Si     Si        0.650035001612809    0.248990909951649    0.104160886372642  0.0000
  Si     Si        0.314071929510372    0.757606136507117    0.889718444609220  0.0000
  Si     Si        0.820660951821784    0.748905315424499    0.888274948570001  0.0000
  Si     Si        0.111569110639546    0.743414551757185    0.096430139114091  0.0000
  Si     Si        0.143445026019064    0.257692342759473    0.105600178014797  0.0000
  Si     Si        0.852536569509982    0.263182797742104    0.897446838088372  0.0000
  Si     Si        0.285121647664936    0.401608064499942    0.329042654592192  0.0000
  Si     Si        0.679721594880961    0.400860666491441    0.669943548257902  0.0000
  Si     Si        0.678986804803991    0.604988905880184    0.664835398021849  0.0000
  Si     Si        0.284386667995894    0.605736809163556    0.323931568650001  0.0000
  Si     Si        0.778909571415017    0.904258125002610    0.330797822056758  0.0000
  Si     Si        0.178084741763015    0.899771630985374    0.659030499302585  0.0000
  Si     Si        0.185201474982784    0.102339522796859    0.663077590244315  0.0000
  Si     Si        0.786025966745020    0.106826192554349    0.334848151337029  0.0000
  Si     Si        0.380854269129492    0.403750568151270    0.687209698843582  0.0000
  Si     Si        0.582944772861132    0.399186933876247    0.311738270058021  0.0000
  Si     Si        0.583253692198123    0.602847359111443    0.306667092282988  0.0000
  Si     Si        0.381163724455711    0.607411330518638    0.682137996123540  0.0000
  Si     Si        0.883406472051769    0.903707967770430    0.688408568834991  0.0000
  Si     Si        0.075235323889868    0.900288327552713    0.301709505891786  0.0000
  Si     Si        0.080703288700322    0.102889189360670    0.305467209176223  0.0000
  Si     Si        0.888876585525727    0.106308981968495    0.692169095670653  0.0000
  O3     O3        0.520469893365337    0.225556067802290    0.970481283333842  0.0000
  O3     O3        0.443635733510611    0.781038003748020    0.023404038754517  0.0000
  O2     O2        0.954586154673141    0.724568427098376    0.021068709585737  0.0000
  O2     O2        0.009515733415721    0.282032585028525    0.972816428151807  0.0000
  O3     O3        0.302747728633134    0.161585795185649    0.759168562798000  0.0000
  O2     O2        0.674469332905876    0.171929206458933    0.233272307718044  0.0000
  O3     O3        0.661364188961873    0.845013185108862    0.234701328140631  0.0000
  O2     O2        0.289641361657573    0.834669483590090    0.760609279937985  0.0000
  O2     O2        0.793438503980420    0.668107138729245    0.765271493573795  0.0000
  O2     O2        0.167286508126439    0.665569749362283    0.218779899609806  0.0000
  O2     O2        0.170672981442854    0.338489434770070    0.228604799515651  0.0000
  O2     O2        0.796820122972467    0.341026418334172    0.775094514557306  0.0000
  O3     O3        0.323566725628391    0.345762135889156    0.801707602193723  0.0000
  O2     O2        0.633820479131814    0.340927821396241    0.188720261389276  0.0000
  O3     O3        0.640548023845233    0.660836472548703    0.192174645146475  0.0000
  O2     O2        0.330286544458219    0.665670260552600    0.805155000185422  0.0000
  O2     O2        0.834707196594195    0.841137250753723    0.805716534908785  0.0000
  O2     O2        0.128760123905939    0.837051980028910    0.186037738734988  0.0000
  O2     O2        0.129401412945104    0.165460061078466    0.188158827858103  0.0000
  O2     O2        0.835352646691485    0.169544684143074    0.807842445860452  0.0000
  O3     O3        0.269322126162779    0.243636178134149    0.036482581368090  0.0000
  O2     O2        0.776626009684775    0.259399564653602    0.032239437039369  0.0000
  O3     O3        0.694774258989868    0.762958879337395    0.957379164276687  0.0000
  O2     O2        0.187474401139818    0.747196747288990    0.961631191785216  0.0000
  O2     O2        0.426139415158128    0.378928946736028    0.290300513523399  0.0000
  O2     O2        0.538805839583269    0.380132346480260    0.709379707773829  0.0000
  O2     O2        0.537969949338050    0.627668195871023    0.703579246963845  0.0000
  O2     O2        0.425301357671007    0.626465244647081    0.284492027768034  0.0000
  O2     O2        0.918710043481810    0.880133995184763    0.287890730448657  0.0000
  O2     O2        0.037363016951194    0.880793082141918    0.697866584259266  0.0000
  O2     O2        0.045401664159387    0.126463602499105    0.705986910750421  0.0000
  O2     O2        0.926747270949422    0.125804664181858    0.296010645763664  0.0000
  O2     O2        0.298772900152696    0.383762358298753    0.510092289650524  0.0000
  O2     O2        0.666856001983984    0.379714909599221    0.488626518621864  0.0000
  O2     O2        0.665332179649598    0.622833908458142    0.483785536032435  0.0000
  O2     O2        0.297254418313769    0.626883883174638    0.505248792985783  0.0000
  O2     O2        0.794134933302620    0.888350716701628    0.513476567377242  0.0000
  O2     O2        0.163626131606613    0.882452083649589    0.476922333802501  0.0000
  O2     O2        0.169974927856685    0.118245923514728    0.480398843660844  0.0000
  O2     O2        0.800484853996047    0.124145406033653    0.516956524205886  0.0000
  O2     O2        0.245485130502489    0.503537971865349    0.288393137438558  0.0000
  O2     O2        0.718623230435068    0.503059208077829    0.705484683387433  0.0000
  O2     O2        0.741763279465061    0.006621467777561    0.291179384008684  0.0000
  O2     O2        0.222347070832227    0.999976524460441    0.702697424093839  0.0000
  O2     O2        0.363534455474982    0.506237559475377    0.724928832290697  0.0000
  O2     O2        0.600572290674386    0.500360505862864    0.268946183445941  0.0000
  O2     O2        0.870345730587651    0.005334120962130    0.738998430429226  0.0000
  O2     O2        0.093764771648526    0.001262872975661    0.254878642064736  0.0000
