data_c00027.vasp
_audit_creation_method             Generated by GULP
_audit_author_name                 Salvador R. G. Balestra
_symmetry_space_group_name_H-M     'P 1             '
_symmetry_Int_Tables_number        1

loop_
_symmetry_equiv_pos_site_id
_symmetry_equiv_pos_as_xyz
_cell_length_a                       10.2551
_cell_length_b                       15.1812
_cell_length_c                        8.8864
_cell_angle_alpha                   90.2470
_cell_angle_beta                   105.1506
_cell_angle_gamma                   90.1149

loop_
_atom_site_label
_atom_site_type_symbol
_atom_site_fract_x
_atom_site_fract_y
_atom_site_fract_z
_atom_site_charge
  Ge     Ge        0.306699999999978    0.397900000000050    0.331699999999955  0.0000
  Ge     Ge        0.806691408280143    0.897899015781928    0.331696927335112  0.0000
  Si     Si        0.370937904464209    0.246904585594650    0.900215124809703  0.0000
  Si     Si        0.666846833816439    0.247775502055405    0.106486448661693  0.0000
  Si     Si        0.660263967256310    0.753132414748304    0.102356500330987  0.0000
  Si     Si        0.365923570329024    0.760134895170781    0.890048314042401  0.0000
  Si     Si        0.870938382432324    0.746902959674386    0.900215975823704  0.0000
  Si     Si        0.166848126627545    0.747770926141599    0.106484747103287  0.0000
  Si     Si        0.160263353947119    0.253138428529619    0.102356255560097  0.0000
  Si     Si        0.865921911868116    0.260136806916559    0.890048753621597  0.0000
  Si     Si        0.707879231130047    0.404336979053185    0.671049573020057  0.0000
  Si     Si        0.705830057764516    0.607685467886961    0.668224879569683  0.0000
  Si     Si        0.309096309545207    0.602390530711119    0.325473715339152  0.0000
  Si     Si        0.207879391704308    0.904334870431634    0.671051024116648  0.0000
  Si     Si        0.205829978503543    0.107686226433548    0.668226206177971  0.0000
  Si     Si        0.809089641443240    0.102389675474989    0.325471145823241  0.0000
  Si     Si        0.408191087314709    0.403958560134508    0.696904325826912  0.0000
  Si     Si        0.612012146516054    0.398323704090623    0.314803696799612  0.0000
  Si     Si        0.608401535406999    0.602585450866507    0.310545115150129  0.0000
  Si     Si        0.406580264194035    0.604319533181946    0.687160459354228  0.0000
  Si     Si        0.908189115173911    0.903957296707043    0.696907814102500  0.0000
  Si     Si        0.112018109605825    0.898323731757624    0.314800135867793  0.0000
  Si     Si        0.108407335267149    0.102585785534880    0.310542256960515  0.0000
  Si     Si        0.906580088682645    0.104319976781590    0.687164270208481  0.0000
  O2     O2        0.524579953898593    0.224995661492203    0.987162627798228  0.0000
  O2     O2        0.523052438730670    0.771974373590441    0.972596469094887  0.0000
  O2     O2        0.024581693331465    0.724993274603970    0.987158049167007  0.0000
  O2     O2        0.023049321881581    0.271978535084117    0.972600071415922  0.0000
  O2     O2        0.319628712625529    0.171080448891804    0.771206876605458  0.0000
  O2     O2        0.698034708534515    0.170674980410849    0.234128110424843  0.0000
  O3     O3        0.681624395763101    0.829255969496821    0.230264209834089  0.0000
  O2     O2        0.321571772253082    0.844199545677771    0.779745361777384  0.0000
  O2     O2        0.819627237596827    0.671081718810839    0.771202669090271  0.0000
  O2     O2        0.198032136940275    0.670667632421244    0.234122107920844  0.0000
  O3     O3        0.181625284358663    0.329263947433890    0.230260139243927  0.0000
  O2     O2        0.821569891604445    0.344198894451887    0.779739564031210  0.0000
  O2     O2        0.361869977508946    0.342046099056007    0.818982849257548  0.0000
  O2     O2        0.668279793544817    0.340871771948710    0.193889413993766  0.0000
  O2     O2        0.660251783300512    0.659121661639978    0.186326227987445  0.0000
  O2     O2        0.342653491824472    0.670677191043328    0.788281852731599  0.0000
  O2     O2        0.861868236050216    0.842046334710304    0.818989129756042  0.0000
  O2     O2        0.168282469888021    0.840866078738991    0.193890512150481  0.0000
  O2     O2        0.160255221296588    0.159128692835657    0.186329524635715  0.0000
  O2     O2        0.842654160540090    0.170677349715839    0.788287040850457  0.0000
  O2     O2        0.284273725259396    0.251796728074036    0.024722073054647  0.0000
  O2     O2        0.782040995853713    0.252816293463015    0.016596147784812  0.0000
  O2     O2        0.784277601677201    0.751790296044650    0.024727432586914  0.0000
  O2     O2        0.282044871941533    0.752811404821178    0.016597603151753  0.0000
  O3     O3        0.460452413761068    0.368985974172126    0.302569041960955  0.0000
  O2     O2        0.562120936169176    0.381660777830672    0.697063458345982  0.0000
  O2     O2        0.562172381837304    0.630006353325048    0.701109858086045  0.0000
  O2     O2        0.453694598076372    0.626997526528918    0.296966874298049  0.0000
  O3     O3        0.960445772275302    0.868998745532913    0.302547716876804  0.0000
  O2     O2        0.062122357062021    0.881659907106779    0.697073773204153  0.0000
  O2     O2        0.062174769751216    0.130005236814731    0.701121215718801  0.0000
  O2     O2        0.953689243688146    0.126982230048721    0.296945931445976  0.0000
  O3     O3        0.312311534259865    0.389163748769920    0.526508021576703  0.0000
  O2     O2        0.703654863294001    0.385052456922173    0.491274186883872  0.0000
  O2     O2        0.697774508499536    0.623042685056438    0.486172634273974  0.0000
  O2     O2        0.319144610299365    0.608949307692232    0.509151057391935  0.0000
  O3     O3        0.812310720058770    0.889157364492184    0.526509420627268  0.0000
  O2     O2        0.203650986661338    0.885042173742108    0.491275781062432  0.0000
  O2     O2        0.197768025049620    0.123051397829411    0.486173787257783  0.0000
  O2     O2        0.819148146063546    0.108953501936442    0.509152240199020  0.0000
  O3     O3        0.267588272549545    0.504348833748980    0.269062503179762  0.0000
  O2     O2        0.744880557533215    0.506461510376567    0.712205118415443  0.0000
  O3     O3        0.767554517926491    0.004348865966503    0.269062415258632  0.0000
  O2     O2        0.244882668097913    0.006460727255515    0.712194999776648  0.0000
  O2     O2        0.398855885584576    0.505397054662014    0.750073004362153  0.0000
  O2     O2        0.618860701149151    0.500349289527182    0.268437035418596  0.0000
  O2     O2        0.898848981967757    0.005396581337422    0.750073906823273  0.0000
  O2     O2        0.118899830626862    0.000349932700058    0.268437323980333  0.0000
