data_c00002.vasp
_audit_creation_method             Generated by GULP
_audit_author_name                 Salvador R. G. Balestra
_symmetry_space_group_name_H-M     'P 1             '
_symmetry_Int_Tables_number        1

loop_
_symmetry_equiv_pos_site_id
_symmetry_equiv_pos_as_xyz
_cell_length_a                       10.1939
_cell_length_b                       15.8928
_cell_length_c                        9.3368
_cell_angle_alpha                   90.1016
_cell_angle_beta                   105.6112
_cell_angle_gamma                   90.6632

loop_
_atom_site_label
_atom_site_type_symbol
_atom_site_fract_x
_atom_site_fract_y
_atom_site_fract_z
_atom_site_charge
  Si     Si        0.351599999999962    0.244500000000016    0.893900000000031  0.0000
  Si     Si        0.652863865939475    0.739970036162233    0.107262606120378  0.0000
  Ge     Ge        0.648610812715996    0.230379214923596    0.096954579459983  0.0000
  Ge     Ge        0.356757343973487    0.740054113876221    0.898274179664802  0.0000
  Ge     Ge        0.848686423304702    0.744952929797789    0.899533323421868  0.0000
  Ge     Ge        0.154221046138429    0.730661490434118    0.110191589102432  0.0000
  Ge     Ge        0.157370888282819    0.238925303563956    0.102565185319393  0.0000
  Ge     Ge        0.850720772041563    0.238603100628951    0.886529944270475  0.0000
  Ge     Ge        0.327887778790015    0.381741550460293    0.332770548329067  0.0000
  Ge     Ge        0.742045465907798    0.393885274219643    0.679270495158601  0.0000
  Ge     Ge        0.735892975606247    0.594216017543467    0.671395161128331  0.0000
  Ge     Ge        0.324987162637324    0.584675929291709    0.323097688984701  0.0000
  Ge     Ge        0.829852987959720    0.880785912783308    0.327418741253447  0.0000
  Ge     Ge        0.236807102972311    0.895067482884798    0.691174884661227  0.0000
  Ge     Ge        0.229394073163763    0.096764928596243    0.675112253123378  0.0000
  Ge     Ge        0.825241648030639    0.083618383114236    0.309126056180980  0.0000
  Ge     Ge        0.424678286172239    0.388956343881335    0.688067648224918  0.0000
  Ge     Ge        0.642487384413861    0.384880056164455    0.315972628087936  0.0000
  Ge     Ge        0.639129522704020    0.586771172119785    0.307712042457522  0.0000
  Ge     Ge        0.418910318966771    0.591251731502408    0.678695734726405  0.0000
  Ge     Ge        0.916390713924875    0.890029851734396    0.682939945614954  0.0000
  Ge     Ge        0.148362069813858    0.883553394616625    0.327740669121423  0.0000
  Ge     Ge        0.144640433327039    0.084723718992772    0.311579632646546  0.0000
  Ge     Ge        0.909564181365947    0.092968834432513    0.664370456148650  0.0000
  O3     O3        0.471406643395206    0.229782029051804    0.042647758107535  0.0000
  O3     O3        0.488719804604583    0.740482620250666    0.059213625635646  0.0000
  O1     O1        0.979319342356230    0.735015366938193    0.056065015746495  0.0000
  O1     O1        0.982246114438867    0.235318256945269    0.043847169937538  0.0000
  O3     O3        0.345715048636279    0.169226107080368    0.776483497627596  0.0000
  O1     O1        0.699040199134887    0.138542941370350    0.189578224249567  0.0000
  O3     O3        0.704405520633512    0.819113860962711    0.213948259309155  0.0000
  O1     O1        0.357434537809469    0.830513987016371    0.798004752363506  0.0000
  O1     O1        0.850136721750743    0.664763948872160    0.776130816498600  0.0000
  O1     O1        0.197138023092449    0.638603743044036    0.205133648291157  0.0000
  O1     O1        0.199620389590112    0.323098186685117    0.220493096009906  0.0000
  O1     O1        0.860123048131750    0.328215363596184    0.786033874168802  0.0000
  O3     O3        0.368765224942786    0.332718540864628    0.818413582937716  0.0000
  O1     O1        0.705761270008234    0.315455471607934    0.212366979769366  0.0000
  O3     O3        0.702456102409466    0.654103141473011    0.196349344312664  0.0000
  O1     O1        0.352408093673907    0.652123285952129    0.791692497886834  0.0000
  O1     O1        0.850406075697546    0.837996502720486    0.807999656988462  0.0000
  O1     O1        0.215883395366524    0.814538420363832    0.227593373573830  0.0000
  O1     O1        0.211323157819558    0.148549021266872    0.200647571457139  0.0000
  O1     O1        0.837816898717226    0.151779744922816    0.774616984667737  0.0000
  O3     O3        0.211842576400679    0.246284467130855    0.943278228579437  0.0000
  O1     O1        0.701853509924122    0.239471433857313    0.939923032600926  0.0000
  O3     O3        0.699796428292169    0.743477130064968    0.956813572310568  0.0000
  O1     O1        0.208590638686717    0.736849215091093    0.953141978820839  0.0000
  O1     O1        0.467259286009581    0.380230566739232    0.262813675457274  0.0000
  O1     O1        0.598817508114036    0.395906067637278    0.743335031320926  0.0000
  O1     O1        0.593673267638921    0.593475799506682    0.736843595876158  0.0000
  O1     O1        0.464455928116976    0.583251328049375    0.252772406446297  0.0000
  O1     O1        0.973039053140118    0.881175336969034    0.264501436070098  0.0000
  O1     O1        0.090875597111119    0.893175724208258    0.750449444388572  0.0000
  O1     O1        0.084107793919755    0.096175954542093    0.734343292591686  0.0000
  O1     O1        0.969606090293870    0.082791272506525    0.247525586577225  0.0000
  O1     O1        0.371922569262183    0.345309179570567    0.513322204124030  0.0000
  O1     O1        0.695767587212901    0.357224294775586    0.499622201188776  0.0000
  O1     O1        0.690621548883233    0.622776021742131    0.487628814299219  0.0000
  O1     O1        0.369137934057193    0.627661031425518    0.498785186262525  0.0000
  O1     O1        0.869912846263921    0.845398312840763    0.507789592174346  0.0000
  O1     O1        0.193365704117962    0.857182464168678    0.511934304850859  0.0000
  O1     O1        0.188682966647360    0.123119165759982    0.490861724195009  0.0000
  O1     O1        0.865468828470330    0.128095554306233    0.484083275147923  0.0000
  O1     O1        0.272934273765407    0.482860248624831    0.338096489287621  0.0000
  O1     O1        0.803846642674519    0.495094773179434    0.683491126176479  0.0000
  O1     O1        0.770998762788693    0.981779998333383    0.321043507799202  0.0000
  O1     O1        0.296013621137896    0.997015644113418    0.695582217978804  0.0000
  O1     O1        0.362623269371667    0.489218178632047    0.683735551746391  0.0000
  O1     O1        0.696467976622265    0.486402632349588    0.296298428037965  0.0000
  O1     O1        0.855152784327669    0.990543504288153    0.664656672480358  0.0000
  O1     O1        0.204736863362958    0.984547084595891    0.310281758469321  0.0000
