data_c00020.vasp
_audit_creation_method             Generated by GULP
_audit_author_name                 Salvador R. G. Balestra
_symmetry_space_group_name_H-M     'P 1             '
_symmetry_Int_Tables_number        1

loop_
_symmetry_equiv_pos_site_id
_symmetry_equiv_pos_as_xyz
_cell_length_a                       10.2235
_cell_length_b                       15.8825
_cell_length_c                        9.2984
_cell_angle_alpha                   89.2478
_cell_angle_beta                   105.3467
_cell_angle_gamma                   90.4758

loop_
_atom_site_label
_atom_site_type_symbol
_atom_site_fract_x
_atom_site_fract_y
_atom_site_fract_z
_atom_site_charge
  Si     Si        0.351599999999962    0.244500000000016    0.893900000000031  0.0000
  Si     Si        0.844715902318446    0.909210322357026    0.676559122552354  0.0000
  Ge     Ge        0.643848352525111    0.268280097923449    0.101706806212071  0.0000
  Ge     Ge        0.572881863283084    0.774310364548201    0.105492346385876  0.0000
  Ge     Ge        0.271313186706764    0.747887742236708    0.898758835641412  0.0000
  Ge     Ge        0.771310873159678    0.765183206783405    0.890671969436382  0.0000
  Ge     Ge        0.070049396397276    0.752494691600046    0.110100267860707  0.0000
  Ge     Ge        0.153161499993358    0.255465132483865    0.099432027565823  0.0000
  Ge     Ge        0.846929196455424    0.263085189818004    0.889663625173100  0.0000
  Ge     Ge        0.259886938724452    0.408061778280983    0.319508283804223  0.0000
  Ge     Ge        0.674277519189049    0.407330981615015    0.665171259613536  0.0000
  Ge     Ge        0.658168274142062    0.609199850979761    0.679637997528469  0.0000
  Ge     Ge        0.246943055913174    0.609632107807095    0.334382332828687  0.0000
  Ge     Ge        0.750958261118199    0.918004724376813    0.323173704165697  0.0000
  Ge     Ge        0.153252155825154    0.900237870920508    0.671980189688966  0.0000
  Ge     Ge        0.175905460720405    0.102964622037407    0.687960960021437  0.0000
  Ge     Ge        0.771641228687770    0.120073478651552    0.330743077377240  0.0000
  Ge     Ge        0.360555366784582    0.395339974237515    0.679474305242590  0.0000
  Ge     Ge        0.573214936328112    0.417690342323935    0.305609777520344  0.0000
  Ge     Ge        0.560260091638376    0.619390605705858    0.319639748475126  0.0000
  Ge     Ge        0.346880070225838    0.597415889682688    0.695882898646180  0.0000
  Ge     Ge        0.065416478158657    0.908843521506209    0.314086513166071  0.0000
  Ge     Ge        0.086796074716794    0.111842467345523    0.326414569108447  0.0000
  Ge     Ge        0.861591410617922    0.107184764426977    0.690629933016093  0.0000
  O3     O3        0.514800266461142    0.248298946637631    0.943180959001579  0.0000
  O1     O1        0.398578538433283    0.767966554398917    0.055321146724020  0.0000
  O1     O1        0.895522621672534    0.758392481186484    0.054029689250574  0.0000
  O1     O1        0.021418895443567    0.258644310299547    0.943624057994349  0.0000
  O3     O3        0.304907567971040    0.157989326143487    0.808306652497944  0.0000
  O1     O1        0.653793479438370    0.189950689771153    0.232288692328529  0.0000
  O1     O1        0.620747396536211    0.862221201121254    0.212055213858954  0.0000
  O1     O1        0.265514635971312    0.829456751042974    0.774263915011866  0.0000
  O1     O1        0.773436588500983    0.676796898186530    0.787465360393222  0.0000
  O1     O1        0.116314901360173    0.669217997700874    0.231644953500488  0.0000
  O1     O1        0.146323610217812    0.342139226557327    0.206164039947168  0.0000
  O1     O1        0.802844029142494    0.346964879268753    0.769233715417439  0.0000
  O3     O3        0.296247268092691    0.322896249599018    0.783287543049435  0.0000
  O1     O1        0.632172638563402    0.364400760313796    0.177660360505027  0.0000
  O1     O1        0.629265098415876    0.686876167883958    0.215231526285974  0.0000
  O1     O1        0.286104526165158    0.652550089641606    0.820332076583266  0.0000
  O3     O3        0.778928595247293    0.853716173501804    0.783094917310278  0.0000
  O1     O1        0.127124717701673    0.844787990972207    0.201482326160534  0.0000
  O1     O1        0.159688675209753    0.167959359514471    0.210907722413418  0.0000
  O1     O1        0.792948080280787    0.169716577569794    0.799154763587844  0.0000
  O3     O3        0.302309828088481    0.252897608196133    0.043143740910269  0.0000
  O1     O1        0.791140922930699    0.271474778835214    0.045725109618238  0.0000
  O1     O1        0.622632458222984    0.773994916144075    0.943584832712988  0.0000
  O1     O1        0.122462369114097    0.742725326722627    0.951705654912262  0.0000
  O1     O1        0.399735277738478    0.416998852597358    0.250684878589418  0.0000
  O1     O1        0.535160523685009    0.399281450803452    0.735693647110972  0.0000
  O1     O1        0.520756375957138    0.600146625740270    0.753009540399676  0.0000
  O1     O1        0.384702010096646    0.618075421669294    0.261693472638495  0.0000
  O1     O1        0.890624376976772    0.913245709623126    0.254607449837431  0.0000
  O3     O3        0.007399164416706    0.904274593439300    0.734997778929511  0.0000
  O1     O1        0.035654576967902    0.105910771855528    0.755526550416416  0.0000
  O1     O1        0.913234513241469    0.120092858283294    0.263028948628157  0.0000
  O1     O1        0.312071484673226    0.365773818457285    0.496455698492165  0.0000
  O1     O1        0.630996781626679    0.375754044351922    0.482356165488373  0.0000
  O1     O1        0.602064459047501    0.650065819635828    0.502619989935512  0.0000
  O1     O1        0.291043733516799    0.638696009308108    0.518519346406932  0.0000
  O3     O3        0.795518716899018    0.879509687063066    0.505727842249173  0.0000
  O1     O1        0.108714300054576    0.867185312721710    0.491647862851710  0.0000
  O1     O1        0.140148595264458    0.143217954580787    0.509342655015217  0.0000
  O1     O1        0.823680210035423    0.149354964951461    0.513686875086857  0.0000
  O1     O1        0.194087316218631    0.505910859766141    0.327537361758975  0.0000
  O1     O1        0.725406410659507    0.511293037377287    0.672563652358813  0.0000
  O1     O1        0.702014374392961    0.021118524324625    0.320914161659361  0.0000
  O1     O1        0.222922169443689    0.999389330356949    0.683790448759301  0.0000
  O1     O1        0.297063066868402    0.493388129667333    0.695405674140948  0.0000
  O1     O1        0.624676815894064    0.521052382887834    0.309580424487926  0.0000
  O3     O3        0.798556459326241    0.005682380425514    0.683395267974521  0.0000
  O1     O1        0.131608608980721    0.008074009241928    0.319063905370957  0.0000
