data_c00004.vasp
_audit_creation_method             Generated by GULP
_audit_author_name                 Salvador R. G. Balestra
_symmetry_space_group_name_H-M     'P 1             '
_symmetry_Int_Tables_number        1

loop_
_symmetry_equiv_pos_site_id
_symmetry_equiv_pos_as_xyz
_cell_length_a                       10.1983
_cell_length_b                       15.8770
_cell_length_c                        9.3207
_cell_angle_alpha                   90.3187
_cell_angle_beta                   105.7036
_cell_angle_gamma                   90.4264

loop_
_atom_site_label
_atom_site_type_symbol
_atom_site_fract_x
_atom_site_fract_y
_atom_site_fract_z
_atom_site_charge
  Si     Si        0.351599999999962    0.244500000000016    0.893900000000031  0.0000
  Si     Si        0.851599307426333    0.744500232033654    0.893899856430120  0.0000
  Ge     Ge        0.648175914037627    0.226570477182018    0.099704832200485  0.0000
  Ge     Ge        0.658959113382166    0.735253596258257    0.103699527454855  0.0000
  Ge     Ge        0.351589802540123    0.738957143425796    0.890643409027490  0.0000
  Ge     Ge        0.148174788395280    0.726569929831928    0.099704490838107  0.0000
  Ge     Ge        0.158959728231922    0.235253201824285    0.103699628834375  0.0000
  Ge     Ge        0.851590653946409    0.238957637045647    0.890643523967513  0.0000
  Ge     Ge        0.329732961784475    0.378172434624404    0.335106589387119  0.0000
  Ge     Ge        0.742585094438265    0.396564928471453    0.689620808574184  0.0000
  Ge     Ge        0.729761649096169    0.597203587145219    0.672185764400161  0.0000
  Ge     Ge        0.325855098323378    0.581192788464680    0.311314803250301  0.0000
  Ge     Ge        0.829732024718678    0.878172569104913    0.335106996767425  0.0000
  Ge     Ge        0.242584945549319    0.896564504609108    0.689620527861532  0.0000
  Ge     Ge        0.229762505367011    0.097203256198000    0.672185828067830  0.0000
  Ge     Ge        0.825855346279830    0.081192970752194    0.311315093541239  0.0000
  Ge     Ge        0.423951989439317    0.389660281590866    0.691128094726851  0.0000
  Ge     Ge        0.645917642859598    0.378561461602414    0.326488965775839  0.0000
  Ge     Ge        0.643310566164166    0.580405541320797    0.308209166760887  0.0000
  Ge     Ge        0.411065091179514    0.591646062949944    0.667986727439425  0.0000
  Ge     Ge        0.923951514961479    0.889660455657933    0.691128469033096  0.0000
  Ge     Ge        0.145917087266897    0.878560922647596    0.326489110497626  0.0000
  Ge     Ge        0.143311074837339    0.080405156385651    0.308209481738271  0.0000
  Ge     Ge        0.911065690735978    0.091646222171557    0.667987044905155  0.0000
  O3     O3        0.471138258857705    0.227482178114794    0.042675622489612  0.0000
  O1     O1        0.483747392404202    0.732387152509742    0.047101509500191  0.0000
  O3     O3        0.971137191271039    0.727481214447212    0.042675103826583  0.0000
  O1     O1        0.983747914859661    0.232387701087845    0.047101892922958  0.0000
  O3     O3        0.344769499673048    0.171087556552374    0.772129056290753  0.0000
  O1     O1        0.697597679680084    0.133383485540121    0.188852013780544  0.0000
  O1     O1        0.702288800316826    0.817632856539059    0.225976200866346  0.0000
  O1     O1        0.361041650601869    0.831827185156059    0.798922658289670  0.0000
  O3     O3        0.844767877589728    0.671088598853047    0.772127575074687  0.0000
  O1     O1        0.197596837288048    0.633383007176526    0.188851924068325  0.0000
  O1     O1        0.202290088032309    0.317632183219748    0.225976769369864  0.0000
  O1     O1        0.861042277050250    0.331827482466774    0.798922039722620  0.0000
  O3     O3        0.369012439373134    0.333994078116169    0.822813117070732  0.0000
  O1     O1        0.708685198891629    0.307904671504187    0.223788783003872  0.0000
  O1     O1        0.710717040159237    0.642824923553120    0.196332481123892  0.0000
  O1     O1        0.338698687893638    0.654182788747139    0.773414438281933  0.0000
  O3     O3        0.869013752450090    0.833994457885306    0.822814961178721  0.0000
  O1     O1        0.208684006819460    0.807904160372077    0.223788312135499  0.0000
  O1     O1        0.210716939130145    0.142824240037427    0.196331801386918  0.0000
  O1     O1        0.838699885661299    0.154183077608417    0.773415120935008  0.0000
  O3     O3        0.212229060255205    0.245447477895454    0.944019049840225  0.0000
  O1     O1        0.702480891325596    0.238373145562843    0.943865356613497  0.0000
  O3     O3        0.712228321198295    0.745447979354232    0.944018862964369  0.0000
  O1     O1        0.202479987947574    0.738372591053562    0.943865079762092  0.0000
  O1     O1        0.470825275761968    0.374373306832931    0.268365504460937  0.0000
  O1     O1        0.597544765301730    0.398741650060447    0.750437473064367  0.0000
  O1     O1        0.586151687371964    0.595771688654325    0.734228972644202  0.0000
  O1     O1        0.468022699467298    0.578986192082634    0.246203545822445  0.0000
  O1     O1        0.970824650006021    0.874372860162945    0.268366578103679  0.0000
  O1     O1        0.097544213336353    0.898741590646523    0.750435999974023  0.0000
  O1     O1        0.086152343629438    0.095771761669587    0.734228535713923  0.0000
  O1     O1        0.968023191330783    0.078986109515656    0.246204534781837  0.0000
  O1     O1        0.373348439986187    0.344129231155096    0.517265092892434  0.0000
  O1     O1        0.698003012038771    0.355120585420614    0.512028258569004  0.0000
  O1     O1        0.687234712956281    0.621153243847434    0.486612708413881  0.0000
  O1     O1        0.366600526590672    0.625689020438451    0.486588773390773  0.0000
  O1     O1        0.873346322075318    0.844129404797631    0.517265555204846  0.0000
  O1     O1        0.198003449846976    0.855119848347639    0.512028187330109  0.0000
  O1     O1        0.187236434960439    0.121153164711878    0.486612815156358  0.0000
  O1     O1        0.866600562109337    0.125689081012431    0.486589134467142  0.0000
  O1     O1        0.274102151083939    0.479806472436848    0.331002241825058  0.0000
  O1     O1        0.801186059491440    0.498329647247737    0.691546126889570  0.0000
  O1     O1        0.774101991637134    0.979806769455976    0.331002497975519  0.0000
  O1     O1        0.301186174727636    0.998329107099670    0.691545611670731  0.0000
  O1     O1        0.357947801807782    0.489453339372330    0.678555836611805  0.0000
  O1     O1        0.701118653257212    0.479528244958468    0.306115144920843  0.0000
  O1     O1        0.857948223154783    0.989453703740420    0.678557096279902  0.0000
  O1     O1        0.201118167688964    0.979527640417776    0.306115225515291  0.0000
