data_c00028.vasp
_audit_creation_method             Generated by GULP
_audit_author_name                 Salvador R. G. Balestra
_symmetry_space_group_name_H-M     'P 1             '
_symmetry_Int_Tables_number        1

loop_
_symmetry_equiv_pos_site_id
_symmetry_equiv_pos_as_xyz
_cell_length_a                       10.2840
_cell_length_b                       15.8729
_cell_length_c                        9.3492
_cell_angle_alpha                   89.6825
_cell_angle_beta                   105.7010
_cell_angle_gamma                   89.8883

loop_
_atom_site_label
_atom_site_type_symbol
_atom_site_fract_x
_atom_site_fract_y
_atom_site_fract_z
_atom_site_charge
  Si     Si        0.306699999999978    0.397900000000050    0.331699999999955  0.0000
  Si     Si        0.196538304096133    0.889326630624303    0.678242620843469  0.0000
  Ge     Ge        0.394208104603287    0.231461757985381    0.902303304921736  0.0000
  Ge     Ge        0.690967265529987    0.254215715095798    0.113489318428456  0.0000
  Ge     Ge        0.675457067478856    0.751134134207409    0.108250283596253  0.0000
  Ge     Ge        0.372797348626379    0.748548019233835    0.897993047555081  0.0000
  Ge     Ge        0.879872547224342    0.739164743425754    0.902638899596821  0.0000
  Ge     Ge        0.181871931143564    0.746667488786771    0.117636338062874  0.0000
  Ge     Ge        0.200527105870300    0.246722692435322    0.120352421722666  0.0000
  Ge     Ge        0.895030813316396    0.253481133495010    0.908168323021684  0.0000
  Ge     Ge        0.710865752662506    0.390411785280555    0.674826744563046  0.0000
  Ge     Ge        0.703141017767505    0.595432519367679    0.684941486415577  0.0000
  Ge     Ge        0.297881919705018    0.593897668753079    0.334144420716876  0.0000
  Ge     Ge        0.798163127050446    0.902472976804194    0.324368355432211  0.0000
  Ge     Ge        0.213183724470749    0.088819280658150    0.693563778572195  0.0000
  Ge     Ge        0.812728560230879    0.104513778001372    0.341006508457220  0.0000
  Ge     Ge        0.398738829618893    0.387543008562307    0.687856430442812  0.0000
  Ge     Ge        0.613713055600537    0.400251551189895    0.322500464244901  0.0000
  Ge     Ge        0.610734390066656    0.603142807309011    0.330423773145260  0.0000
  Ge     Ge        0.391689710648707    0.589553150243542    0.698760780382336  0.0000
  Ge     Ge        0.890202400323554    0.892994584346749    0.685332595950716  0.0000
  Ge     Ge        0.115136000356203    0.896855067888853    0.330437516099275  0.0000
  Ge     Ge        0.126971686128993    0.099446704993585    0.337262120995547  0.0000
  Ge     Ge        0.903125616169661    0.095419568315084    0.704552861529488  0.0000
  O1     O1        0.567551467820202    0.233691429331301    0.953669656346281  0.0000
  O1     O1        0.546668499493791    0.755318731445544    0.948468370179638  0.0000
  O1     O1        0.053444916157293    0.740386774841219    0.958411926235777  0.0000
  O1     O1        0.068871749608787    0.254870309573350    0.964022326783610  0.0000
  O1     O1        0.345959315977947    0.138235237621956    0.812341349808131  0.0000
  O1     O1        0.697695800646331    0.175780394970035    0.242562092198625  0.0000
  O1     O1        0.677345447214424    0.840258016154178    0.212951079371422  0.0000
  O3     O3        0.313168498091247    0.832383323688297    0.780395918619867  0.0000
  O1     O1        0.831328096743407    0.649406493464573    0.802424393278863  0.0000
  O1     O1        0.178217330828552    0.660165930122217    0.228978238558523  0.0000
  O3     O3        0.200803717743000    0.333859108279518    0.232435645066593  0.0000
  O1     O1        0.842816280907237    0.335706855730399    0.786681966395350  0.0000
  O1     O1        0.332744822268342    0.314510860002227    0.782518316397610  0.0000
  O1     O1        0.664280485165845    0.349195745251039    0.187080852084557  0.0000
  O1     O1        0.673866663193861    0.662747544189281    0.213382430497497  0.0000
  O1     O1        0.325587209839889    0.655289768826111    0.805663441477879  0.0000
  O1     O1        0.825361504573235    0.826292555879018    0.791006126737314  0.0000
  O1     O1        0.181738772517174    0.836377070163650    0.218232961471436  0.0000
  O1     O1        0.195619666359600    0.157730659091353    0.222642025520268  0.0000
  O1     O1        0.841529722599999    0.160551244217275    0.815672670292350  0.0000
  O1     O1        0.345395011015808    0.241128145154648    0.062779100572703  0.0000
  O1     O1        0.840508695734114    0.260255274410914    0.064910285840051  0.0000
  O1     O1        0.824826820085922    0.745009114932941    0.058438467105753  0.0000
  O1     O1        0.327616355025874    0.750816819750459    0.060253148433170  0.0000
  O3     O3        0.438517301120246    0.404165061034659    0.270996250243761  0.0000
  O1     O1        0.572555774939282    0.383127915265066    0.744586956994865  0.0000
  O1     O1        0.565383224793627    0.593833153938613    0.755750409074595  0.0000
  O1     O1        0.437452767357051    0.603122658782414    0.268259997356617  0.0000
  O1     O1        0.942327018249364    0.900319198537971    0.264452525954715  0.0000
  O3     O3        0.066100803741610    0.889878859718488    0.741990228855072  0.0000
  O1     O1        0.077018249526680    0.096289891311299    0.765288520230376  0.0000
  O1     O1        0.953605398604006    0.104548257973767    0.275093251061461  0.0000
  O3     O3        0.352852997780479    0.364613919188987    0.500383004590892  0.0000
  O1     O1        0.672019176960803    0.354002699759068    0.494540914294619  0.0000
  O1     O1        0.658300982107563    0.639780095576041    0.509968667028362  0.0000
  O1     O1        0.339801268536618    0.622570549933057    0.517060292546222  0.0000
  O1     O1        0.835038197042355    0.864289266759277    0.503338831102175  0.0000
  O3     O3        0.153716972450967    0.855706023701461    0.509856636725769  0.0000
  O1     O1        0.177193097077913    0.132770102031984    0.518664154963472  0.0000
  O1     O1        0.859961708080508    0.132061588844636    0.524531070449251  0.0000
  O3     O3        0.241292825033488    0.490491548083488    0.325303463315493  0.0000
  O1     O1        0.755183866727002    0.494145475365215    0.669199798284114  0.0000
  O1     O1        0.744541711701491    0.005005919975120    0.323808135511627  0.0000
  O3     O3        0.251198680921853    0.983940589428914    0.674919108411290  0.0000
  O1     O1        0.343941440218486    0.486908716458177    0.714936512415888  0.0000
  O1     O1        0.670100558530193    0.501926682635137    0.330304330816439  0.0000
  O1     O1        0.842793552703407    0.994987950751745    0.707622615869782  0.0000
  O1     O1        0.177354208708066    0.996633090089148    0.330325758628354  0.0000
