data_c00018.vasp
_audit_creation_method             Generated by GULP
_audit_author_name                 Salvador R. G. Balestra
_symmetry_space_group_name_H-M     'P 1             '
_symmetry_Int_Tables_number        1

loop_
_symmetry_equiv_pos_site_id
_symmetry_equiv_pos_as_xyz
_cell_length_a                       10.2286
_cell_length_b                       15.8606
_cell_length_c                        9.3149
_cell_angle_alpha                   90.2119
_cell_angle_beta                   105.3605
_cell_angle_gamma                   90.6323

loop_
_atom_site_label
_atom_site_type_symbol
_atom_site_fract_x
_atom_site_fract_y
_atom_site_fract_z
_atom_site_charge
  Si     Si        0.351599999999962    0.244500000000016    0.893900000000031  0.0000
  Si     Si        0.635033157257360    0.578182577587045    0.309076852687018  0.0000
  Ge     Ge        0.646783174438281    0.228190824158510    0.097509672652109  0.0000
  Ge     Ge        0.644245276679690    0.734104942257842    0.113314434525848  0.0000
  Ge     Ge        0.345077957983879    0.740219211213337    0.893536851105584  0.0000
  Ge     Ge        0.844806215701958    0.743545558207548    0.898126972086380  0.0000
  Ge     Ge        0.146809351344400    0.725379496013499    0.104466829989373  0.0000
  Ge     Ge        0.156946182779548    0.235947977740194    0.102841980452309  0.0000
  Ge     Ge        0.851118685135429    0.240672346564343    0.889100029440938  0.0000
  Ge     Ge        0.327243780795450    0.377276276049252    0.336162423608316  0.0000
  Ge     Ge        0.741467219634613    0.396093122038500    0.683467942409796  0.0000
  Ge     Ge        0.728094319576914    0.595648859294127    0.664268081126484  0.0000
  Ge     Ge        0.326347010733370    0.580916561809885    0.317230175847726  0.0000
  Ge     Ge        0.825988662692744    0.878100988600279    0.338306843551921  0.0000
  Ge     Ge        0.236035532789918    0.897460279286107    0.690825529299470  0.0000
  Ge     Ge        0.227522894480328    0.098399076569938    0.670104472097285  0.0000
  Ge     Ge        0.823418872023392    0.081735459055318    0.309280346569360  0.0000
  Ge     Ge        0.424139653854781    0.390112866667161    0.691212012478834  0.0000
  Ge     Ge        0.639997290250823    0.380282002223728    0.321537929450933  0.0000
  Ge     Ge        0.411962721858083    0.592699685402603    0.671569427495779  0.0000
  Ge     Ge        0.919759784794071    0.892837282336692    0.694050535175121  0.0000
  Ge     Ge        0.139720096392589    0.878180821799873    0.327398933542219  0.0000
  Ge     Ge        0.140081338026877    0.080245167215622    0.306355654700640  0.0000
  Ge     Ge        0.909586780940294    0.094737967241737    0.664768140211225  0.0000
  O3     O3        0.470577236418249    0.225491957310472    0.040768298638320  0.0000
  O1     O1        0.470262717327116    0.737996110183283    0.056536463293683  0.0000
  O1     O1        0.972427587477450    0.722850497322807    0.054085655833642  0.0000
  O1     O1        0.982442848292383    0.234775682988090    0.044880276913109  0.0000
  O3     O3        0.342436510461621    0.172100425738277    0.769690475159207  0.0000
  O1     O1        0.697265151824163    0.135822512027175    0.188994715613778  0.0000
  O1     O1        0.698507439004549    0.815389689558448    0.235355066786483  0.0000
  O1     O1        0.353974223367387    0.831778105130901    0.797365787208674  0.0000
  O1     O1        0.839412162424939    0.670251921216529    0.759351986055918  0.0000
  O1     O1        0.204014270456209    0.631906162459125    0.188641333079399  0.0000
  O1     O1        0.199324541110092    0.317257198994844    0.227634141087755  0.0000
  O1     O1        0.859850170386589    0.332426311191764    0.793504424712976  0.0000
  O3     O3        0.372390067569088    0.334518894679732    0.825662131977591  0.0000
  O1     O1        0.704284194755136    0.312685140251966    0.215700719208065  0.0000
  O3     O3        0.692684355870455    0.638597852417892    0.202351119441127  0.0000
  O1     O1        0.343477966421569    0.653652396800498    0.783116348810462  0.0000
  O1     O1        0.861461610628658    0.841058110844462    0.825835107303966  0.0000
  O1     O1        0.205435369997945    0.807202309875139    0.228042893674629  0.0000
  O1     O1        0.206594463005029    0.142555805519749    0.192855566964593  0.0000
  O1     O1        0.837627316737642    0.155898240979329    0.772009756539730  0.0000
  O3     O3        0.212732255250889    0.246598299071608    0.944595237758684  0.0000
  O1     O1        0.702155660882323    0.239661029022823    0.942010783326727  0.0000
  O1     O1        0.697767376463492    0.741248119922324    0.954760007139303  0.0000
  O1     O1        0.194189707116137    0.739028925215412    0.943296364842221  0.0000
  O1     O1        0.466657076142330    0.370493488498303    0.266865597950571  0.0000
  O1     O1        0.597077296705897    0.399306611476787    0.744830580065178  0.0000
  O1     O1        0.586114278138999    0.597899605612433    0.729718584932309  0.0000
  O3     O3        0.471753947562200    0.575255737314734    0.255555015740313  0.0000
  O1     O1        0.965189665421661    0.873553818487996    0.267786470498347  0.0000
  O1     O1        0.093195279643823    0.900141171305163    0.754928567822651  0.0000
  O1     O1        0.083703867701451    0.098496286814688    0.731563832488046  0.0000
  O1     O1        0.965691678973803    0.078969493140510    0.244578777961965  0.0000
  O1     O1        0.371047418098044    0.343744163704208    0.518486710823578  0.0000
  O1     O1        0.697759133355301    0.355341683533351    0.505661529391238  0.0000
  O3     O3        0.678121510662529    0.616215679335522    0.475638096135065  0.0000
  O1     O1        0.359729742366156    0.627084688911016    0.490056287470211  0.0000
  O1     O1        0.871164478317773    0.845846233631532    0.520818781901210  0.0000
  O1     O1        0.188306447409435    0.856153756818854    0.513372067159956  0.0000
  O1     O1        0.185983118461299    0.121439728802173    0.484249441891342  0.0000
  O1     O1        0.865346296458543    0.127889954115861    0.483159276928505  0.0000
  O1     O1        0.274175942077528    0.479258506669498    0.334778034651428  0.0000
  O1     O1        0.800966444865787    0.497885131219952    0.687339755722030  0.0000
  O1     O1        0.770449505367452    0.980206726598253    0.327783665013807  0.0000
  O1     O1        0.296512861525330    0.998928998857753    0.691226841442396  0.0000
  O1     O1        0.359583047041909    0.490044330976221    0.681248742249921  0.0000
  O3     O3        0.690424922112195    0.484252363171732    0.304494565525735  0.0000
  O1     O1        0.855031086773388    0.992764167454695    0.673189238195078  0.0000
  O1     O1        0.195832759917833    0.978938064624381    0.304966399806807  0.0000
