data_c00027.vasp
_audit_creation_method             Generated by GULP
_audit_author_name                 Salvador R. G. Balestra
_symmetry_space_group_name_H-M     'P 1             '
_symmetry_Int_Tables_number        1

loop_
_symmetry_equiv_pos_site_id
_symmetry_equiv_pos_as_xyz
_cell_length_a                       10.3058
_cell_length_b                       15.8647
_cell_length_c                        9.2856
_cell_angle_alpha                   89.3491
_cell_angle_beta                   105.9028
_cell_angle_gamma                   90.0657

loop_
_atom_site_label
_atom_site_type_symbol
_atom_site_fract_x
_atom_site_fract_y
_atom_site_fract_z
_atom_site_charge
  Si     Si        0.306699999999978    0.397900000000050    0.331699999999955  0.0000
  Si     Si        0.806705480551399    0.897899875546527    0.331697461299381  0.0000
  Ge     Ge        0.323845806289596    0.232085863212170    0.912316128260971  0.0000
  Ge     Ge        0.627772939504888    0.237552987028061    0.128120944365998  0.0000
  Ge     Ge        0.632165167468676    0.754048961712406    0.129607389666355  0.0000
  Ge     Ge        0.332597853212591    0.728643480009318    0.921793796646876  0.0000
  Ge     Ge        0.823849248774276    0.732082879074190    0.912315659902054  0.0000
  Ge     Ge        0.127778748604009    0.737555616157450    0.128120340906636  0.0000
  Ge     Ge        0.132160587031158    0.254050698850105    0.129607108460637  0.0000
  Ge     Ge        0.832593130106005    0.228640417755385    0.921794601254388  0.0000
  Ge     Ge        0.703616339929983    0.373979673243374    0.684122702050408  0.0000
  Ge     Ge        0.714567428141991    0.574244282210879    0.711149316261863  0.0000
  Ge     Ge        0.306524230661846    0.597215659474569    0.359944445539891  0.0000
  Ge     Ge        0.203618419966214    0.873983028133857    0.684125649233756  0.0000
  Ge     Ge        0.214562938684205    0.074247502562344    0.711148373184562  0.0000
  Ge     Ge        0.806522644127755    0.097215036715121    0.359945883877562  0.0000
  Ge     Ge        0.388864581142917    0.377098001848653    0.683076166647071  0.0000
  Ge     Ge        0.611647057453383    0.397026715130111    0.322596319204595  0.0000
  Ge     Ge        0.617035598347203    0.599832984837991    0.347936758721001  0.0000
  Ge     Ge        0.400575058154356    0.577075107831088    0.718807111449912  0.0000
  Ge     Ge        0.888867259494134    0.877095431398293    0.683074747504148  0.0000
  Ge     Ge        0.111651128027503    0.897028767131600    0.322596614911872  0.0000
  Ge     Ge        0.117031789132130    0.099834174258307    0.347933965585816  0.0000
  Ge     Ge        0.900572828084322    0.077072688875067    0.718810028078284  0.0000
  O1     O1        0.453917220440005    0.239166099545176    0.070602890875849  0.0000
  O1     O1        0.458560618229079    0.755599331064849    0.076878378807044  0.0000
  O1     O1        0.953922293614109    0.739172374809349    0.070602397675019  0.0000
  O1     O1        0.958556099419465    0.255598537211652    0.076878008229878  0.0000
  O1     O1        0.330845642729098    0.136331219875658    0.829111572326072  0.0000
  O1     O1        0.676632370927445    0.158238949731795    0.258766088886141  0.0000
  O3     O3        0.688225935279258    0.847908288936277    0.217304759116851  0.0000
  O1     O1        0.319306092982343    0.802796938746631    0.782312676914602  0.0000
  O1     O1        0.830851858897052    0.636323080491454    0.829123581230116  0.0000
  O1     O1        0.176635425363489    0.658238939803106    0.258760528786284  0.0000
  O3     O3        0.188220960541249    0.347910159128529    0.217303493800181  0.0000
  O1     O1        0.819301641609184    0.302792746761807    0.782311337113984  0.0000
  O1     O1        0.315317510034366    0.308985457871306    0.778889829849716  0.0000
  O1     O1        0.672537730710248    0.335075089487067    0.206870233933398  0.0000
  O1     O1        0.686707266788946    0.670098728998140    0.250073904525276  0.0000
  O1     O1        0.353712212468612    0.631096306360596    0.854507249253713  0.0000
  O1     O1        0.815312669392276    0.808976478215867    0.778872080342414  0.0000
  O1     O1        0.172546184464206    0.835075843354289    0.206875924993507  0.0000
  O1     O1        0.186704702076492    0.170101380399317    0.250075005751023  0.0000
  O1     O1        0.853707868873270    0.131092660382730    0.854509884045594  0.0000
  O1     O1        0.177831856941292    0.241079620817561    0.967604526960525  0.0000
  O1     O1        0.684968054190526    0.224078465945049    0.974716249012317  0.0000
  O1     O1        0.677836409921343    0.741077940041084    0.967604857125719  0.0000
  O1     O1        0.184972680852128    0.724081841623815    0.974714845754390  0.0000
  O3     O3        0.436243536711716    0.402023098402538    0.267093516664946  0.0000
  O1     O1        0.561882595371801    0.370603565843820    0.748409414538958  0.0000
  O1     O1        0.572603020632189    0.567585516566016    0.773395360724691  0.0000
  O1     O1        0.443282955927617    0.609254587458180    0.289794550716780  0.0000
  O3     O3        0.936247254857852    0.902024742685098    0.267087844587794  0.0000
  O1     O1        0.061885174705884    0.870603378439971    0.748413629784674  0.0000
  O1     O1        0.072601300651979    0.067586856463357    0.773398749354981  0.0000
  O1     O1        0.943278918444977    0.109255096645519    0.289792042340045  0.0000
  O3     O3        0.346975034071415    0.352591402410720    0.493960140882125  0.0000
  O1     O1        0.661226073169362    0.351503943275704    0.497386315911468  0.0000
  O1     O1        0.668492576201972    0.619950144575719    0.535512373561545  0.0000
  O1     O1        0.347996309588502    0.625084194998974    0.545308220780581  0.0000
  O3     O3        0.846986693274546    0.852591953512525    0.493957707350877  0.0000
  O1     O1        0.161228098870382    0.851508745180137    0.497388460403420  0.0000
  O1     O1        0.168482723158687    0.119949860769007    0.535510157321088  0.0000
  O1     O1        0.847993801303156    0.125081419035622    0.545310881625849  0.0000
  O3     O3        0.258218299363402    0.492241701140193    0.351410101003323  0.0000
  O1     O1        0.772372940937060    0.473849992041857    0.703681817822367  0.0000
  O3     O3        0.758219467534084    0.992240511747218    0.351408704253107  0.0000
  O1     O1        0.272372753604774    0.973853958486946    0.703686564829139  0.0000
  O1     O1        0.335446608153055    0.476839057179563    0.706758914468201  0.0000
  O1     O1        0.666752223896763    0.498695437384638    0.321288122883086  0.0000
  O1     O1        0.835448128811990    0.976835632717128    0.706763851450532  0.0000
  O1     O1        0.166753024302230    0.998697856672015    0.321284096938526  0.0000
