data_c00044.vasp
_audit_creation_method             Generated by GULP
_audit_author_name                 Salvador R. G. Balestra
_symmetry_space_group_name_H-M     'P 1             '
_symmetry_Int_Tables_number        1

loop_
_symmetry_equiv_pos_site_id
_symmetry_equiv_pos_as_xyz
_cell_length_a                       10.3074
_cell_length_b                       15.8727
_cell_length_c                        9.2800
_cell_angle_alpha                   90.0382
_cell_angle_beta                   105.0496
_cell_angle_gamma                   90.7278

loop_
_atom_site_label
_atom_site_type_symbol
_atom_site_fract_x
_atom_site_fract_y
_atom_site_fract_z
_atom_site_charge
  Si     Si        0.403900000000021    0.397900000000050    0.686299999999960  0.0000
  Si     Si        0.114165553930350    0.083950197109831    0.295798140581052  0.0000
  Ge     Ge        0.387757381060313    0.240979510109150    0.878123128015329  0.0000
  Ge     Ge        0.686684544454944    0.232386721692019    0.094861026120333  0.0000
  Ge     Ge        0.694915296575517    0.729766319322783    0.092792776846241  0.0000
  Ge     Ge        0.397872592720196    0.750898518690358    0.884864765164272  0.0000
  Ge     Ge        0.897752686359778    0.735287707500745    0.883055706466645  0.0000
  Ge     Ge        0.198179302146636    0.738474768425057    0.097135902621334  0.0000
  Ge     Ge        0.188607567912469    0.232471956947112    0.098001750225287  0.0000
  Ge     Ge        0.890117273820703    0.248861491327043    0.888908960381363  0.0000
  Ge     Ge        0.307589616075576    0.381834304577228    0.329573575426520  0.0000
  Ge     Ge        0.710368296581215    0.392270904349087    0.674367555504643  0.0000
  Ge     Ge        0.715289446097769    0.596268802102799    0.653545817071784  0.0000
  Ge     Ge        0.304739306165132    0.581834141641482    0.307615037562613  0.0000
  Ge     Ge        0.817781447367322    0.878113870621234    0.321953833855182  0.0000
  Ge     Ge        0.222082167354861    0.897037574682760    0.671767674408583  0.0000
  Ge     Ge        0.212022509026291    0.099169141583036    0.645316469088551  0.0000
  Ge     Ge        0.807390822136266    0.079864181588827    0.304372188488803  0.0000
  Ge     Ge        0.621188810072887    0.378537568887612    0.321225354627326  0.0000
  Ge     Ge        0.616770913002034    0.581135676666891    0.298128464458092  0.0000
  Ge     Ge        0.407244002939557    0.595599021135530    0.672100425580167  0.0000
  Ge     Ge        0.910968170140887    0.895194960357345    0.685322776140932  0.0000
  Ge     Ge        0.127429787704846    0.885437833547948    0.313126246523303  0.0000
  Ge     Ge        0.901869811192392    0.097303332592058    0.664639984984249  0.0000
  O1     O1        0.559831971214690    0.232031702732095    0.935085035629444  0.0000
  O1     O1        0.570572473027320    0.752351312232111    0.936274536538853  0.0000
  O1     O1        0.070929872249921    0.734667975593736    0.937207743877410  0.0000
  O1     O1        0.062822222066760    0.252799711507227    0.941767732784288  0.0000
  O1     O1        0.333092329459152    0.166788574091813    0.741956900915274  0.0000
  O1     O1        0.686664774556938    0.140192896853643    0.192641832622269  0.0000
  O1     O1        0.702378530712447    0.806340857922750    0.226174225629057  0.0000
  O1     O1        0.347436909369428    0.841499662361834    0.787915009427623  0.0000
  O1     O1        0.846099245743385    0.655793805049867    0.755542664994941  0.0000
  O1     O1        0.191527495517351    0.650216308746874    0.203241377711912  0.0000
  O1     O1        0.196173620177556    0.308352748819365    0.232245821037186  0.0000
  O1     O1        0.832621172670941    0.341369882055490    0.801504227957795  0.0000
  O3     O3        0.347405268532398    0.339656598187984    0.797794903211014  0.0000
  O1     O1        0.684798151149041    0.318222551602521    0.205325848685124  0.0000
  O1     O1        0.672786132724945    0.633060131020096    0.164847346498669  0.0000
  O1     O1        0.339971022820294    0.663869574474736    0.773439617861958  0.0000
  O1     O1        0.848574025660096    0.830709849884582    0.799008656033745  0.0000
  O1     O1        0.199478933708175    0.828340827158477    0.200614456222974  0.0000
  O3     O3        0.167026482836140    0.135341730472039    0.173695687292398  0.0000
  O1     O1        0.836517844927701    0.165383810755987    0.768596268691774  0.0000
  O1     O1        0.332034654139694    0.228984312686261    0.035394140895954  0.0000
  O1     O1        0.837219895361736    0.236662319132749    0.047122548386642  0.0000
  O1     O1        0.842920281267610    0.724510428020025    0.040328268289870  0.0000
  O1     O1        0.346860777075816    0.742307764067929    0.045565137447591  0.0000
  O1     O1        0.448566413669547    0.375945879119213    0.264274832746514  0.0000
  O3     O3        0.565783284303994    0.397913748997913    0.736282768050860  0.0000
  O1     O1        0.579605703138102    0.604177853109232    0.728682048077120  0.0000
  O1     O1        0.444548465841067    0.576249164647613    0.240378515128129  0.0000
  O1     O1        0.956231595113864    0.874495041314029    0.250637905470367  0.0000
  O1     O1        0.083894445004285    0.898513816671701    0.742472058844664  0.0000
  O1     O1        0.074905143194665    0.103085255011932    0.717868408518219  0.0000
  O3     O3        0.952970736928076    0.076622550029274    0.243288022403850  0.0000
  O3     O3        0.354456591881325    0.361082774113080    0.518839677189698  0.0000
  O1     O1        0.674041481918727    0.344089109757459    0.502745301863462  0.0000
  O1     O1        0.668263834180169    0.628851257086702    0.470563812389953  0.0000
  O1     O1        0.354803363123622    0.620052536700887    0.486856644467897  0.0000
  O1     O1        0.867610776877350    0.853976889488555    0.507525640852274  0.0000
  O1     O1        0.179835675966010    0.853453466411699    0.495613115540048  0.0000
  O3     O3        0.160420746643832    0.127624988171473    0.458261540565697  0.0000
  O1     O1        0.846464772258532    0.122911117935468    0.479887811323711  0.0000
  O1     O1        0.240489676454584    0.481017530212232    0.304307248301000  0.0000
  O1     O1        0.764083496349448    0.493334905454446    0.656481830182059  0.0000
  O1     O1        0.751731856557670    0.977795551113600    0.305631383128957  0.0000
  O1     O1        0.275005022883489    0.999421729413192    0.660878758081595  0.0000
  O3     O3        0.353955517306906    0.492807740341536    0.691852937033532  0.0000
  O1     O1        0.676861318667748    0.480380082259861    0.314783105469944  0.0000
  O1     O1        0.851212658255748    0.995280405874004    0.686492251873530  0.0000
  O3     O3        0.174295864481027    0.990596871448644    0.308974207183299  0.0000
