data_c00005.vasp
_audit_creation_method             Generated by GULP
_audit_author_name                 Salvador R. G. Balestra
_symmetry_space_group_name_H-M     'P 1             '
_symmetry_Int_Tables_number        1

loop_
_symmetry_equiv_pos_site_id
_symmetry_equiv_pos_as_xyz
_cell_length_a                       10.2034
_cell_length_b                       15.8823
_cell_length_c                        9.3064
_cell_angle_alpha                   89.3584
_cell_angle_beta                   105.6771
_cell_angle_gamma                   90.1247

loop_
_atom_site_label
_atom_site_type_symbol
_atom_site_fract_x
_atom_site_fract_y
_atom_site_fract_z
_atom_site_charge
  Si     Si        0.351599999999962    0.244500000000016    0.893900000000031  0.0000
  Si     Si        0.154372743870597    0.762638688597296    0.111255470327048  0.0000
  Ge     Ge        0.645490983016396    0.263271440432240    0.102726560960258  0.0000
  Ge     Ge        0.651852731294475    0.758222680014164    0.111470504657380  0.0000
  Ge     Ge        0.344752572096259    0.752461042964854    0.898766732963203  0.0000
  Ge     Ge        0.857379442359943    0.744132831161072    0.905391907050901  0.0000
  Ge     Ge        0.156695432855700    0.257294288038005    0.102220419305717  0.0000
  Ge     Ge        0.848728994668186    0.253254479695879    0.892075231188850  0.0000
  Ge     Ge        0.260300597971813    0.414485638929468    0.311334401811322  0.0000
  Ge     Ge        0.673863527946063    0.396465568905747    0.664285038915577  0.0000
  Ge     Ge        0.677304706456224    0.599017120485850    0.695507674604576  0.0000
  Ge     Ge        0.272232443314819    0.614570183637817    0.332968129847832  0.0000
  Ge     Ge        0.765970685739615    0.913557668676784    0.313528168466727  0.0000
  Ge     Ge        0.178489835483556    0.898390942808058    0.669517958724105  0.0000
  Ge     Ge        0.179533392117078    0.100538009049653    0.688859614875579  0.0000
  Ge     Ge        0.776915593225491    0.114910984477958    0.330354236034127  0.0000
  Ge     Ge        0.358631314749948    0.394263763682845    0.676309155458266  0.0000
  Ge     Ge        0.578738800991896    0.412301283494810    0.309650131463801  0.0000
  Ge     Ge        0.591447979820954    0.613444004250934    0.339806864992137  0.0000
  Ge     Ge        0.359967690831765    0.595618574132420    0.698827181208652  0.0000
  Ge     Ge        0.861620302866950    0.895406761278272    0.675540111580014  0.0000
  Ge     Ge        0.083639037216533    0.909084591238901    0.311148871133163  0.0000
  Ge     Ge        0.094623701124213    0.111878394174816    0.329678678738796  0.0000
  Ge     Ge        0.862924907251808    0.096605953375759    0.692773026081976  0.0000
  O3     O3        0.515462468107127    0.245860265686250    0.942875915017871  0.0000
  O1     O1        0.520173863882267    0.750090472089069    0.955134222471736  0.0000
  O3     O3        0.034195151077058    0.745535851901813    0.962715356279131  0.0000
  O1     O1        0.024072320044257    0.251344319207767    0.946619467202333  0.0000
  O3     O3        0.302810959070839    0.156690009230589    0.814743690591288  0.0000
  O1     O1        0.656487008557027    0.184397273395275    0.232645902182133  0.0000
  O1     O1        0.644437366838373    0.851409684795571    0.201873133081658  0.0000
  O1     O1        0.302726485967634    0.835110817034471    0.776543274468466  0.0000
  O1     O1        0.806212455181156    0.650299114228825    0.819384348080721  0.0000
  O3     O3        0.159364069185491    0.689470835953159    0.233962874360662  0.0000
  O1     O1        0.146774941638016    0.348580928588934    0.197194178764410  0.0000
  O1     O1        0.801828704737736    0.334837491451362    0.767616359586490  0.0000
  O3     O3        0.294459216720103    0.320638070504048    0.777459983977390  0.0000
  O1     O1        0.634972659709201    0.359407133168241    0.178983394482433  0.0000
  O1     O1        0.664508397047779    0.675497121584938    0.233591518738785  0.0000
  O1     O1        0.293101008662566    0.659131601790199    0.809034952549674  0.0000
  O1     O1        0.798460086558632    0.824550388027472    0.778777140959434  0.0000
  O3     O3        0.139477137694237    0.852368461108228    0.181799053271051  0.0000
  O1     O1        0.168581763420334    0.173526445805769    0.222453694632756  0.0000
  O1     O1        0.797055303556214    0.159090036982049    0.804387536361430  0.0000
  O3     O3        0.305207797486702    0.256595776654426    0.044013360625168  0.0000
  O1     O1        0.793268806895245    0.264203373771982    0.047498712866905  0.0000
  O1     O1        0.801842698587260    0.757180055420444    0.060098515160673  0.0000
  O3     O3        0.292894915977156    0.762890525119178    0.059522754509152  0.0000
  O1     O1        0.404980419991877    0.419120120288890    0.251008511300157  0.0000
  O1     O1        0.533317531426234    0.392356247986191    0.733049873594549  0.0000
  O1     O1        0.535082800792261    0.595190665237833    0.760603807124408  0.0000
  O1     O1        0.416621069737632    0.615371629532562    0.272319862202574  0.0000
  O1     O1        0.910188403541387    0.916850575365825    0.251030119379020  0.0000
  O1     O1        0.036624086538134    0.893766140081963    0.734962555585472  0.0000
  O1     O1        0.038176587280957    0.093402482241498    0.753790107889926  0.0000
  O1     O1        0.919621331891569    0.118046487573919    0.265057252330206  0.0000
  O1     O1        0.302658190985622    0.373165606056701    0.489927778553409  0.0000
  O1     O1        0.627152630257571    0.363695355469789    0.482061730100430  0.0000
  O1     O1        0.635494141614667    0.646349248500465    0.521760736486617  0.0000
  O1     O1        0.314318322377282    0.635884553865448    0.519593718906622  0.0000
  O1     O1        0.811574984473776    0.870399674003154    0.490341470833985  0.0000
  O1     O1        0.135113874958098    0.865417006739621    0.486603873973586  0.0000
  O1     O1        0.141312108402357    0.144033242656731    0.512809111354509  0.0000
  O1     O1        0.823295214420320    0.139474812859132    0.515818606494493  0.0000
  O1     O1        0.200031776822236    0.515522550008305    0.309731512807019  0.0000
  O1     O1        0.729479067891717    0.498631967246509    0.672606324076967  0.0000
  O1     O1        0.709518785917172    0.014810911668444    0.315398890389877  0.0000
  O1     O1        0.237157183213284    0.999952918361103    0.676314501174824  0.0000
  O1     O1        0.303370719151616    0.494029273911279    0.702465674357130  0.0000
  O1     O1        0.645657149603241    0.511915058196286    0.329827354001979  0.0000
  O1     O1        0.803501729078317    0.995672022528550    0.693091798104190  0.0000
  O1     O1        0.146804398664568    0.009840287533596    0.320125778734210  0.0000
