data_c00006.vasp
_audit_creation_method             Generated by GULP
_audit_author_name                 Salvador R. G. Balestra
_symmetry_space_group_name_H-M     'P 1             '
_symmetry_Int_Tables_number        1

loop_
_symmetry_equiv_pos_site_id
_symmetry_equiv_pos_as_xyz
_cell_length_a                       10.2514
_cell_length_b                       15.8887
_cell_length_c                        9.3021
_cell_angle_alpha                   90.4112
_cell_angle_beta                   105.6603
_cell_angle_gamma                   90.6467

loop_
_atom_site_label
_atom_site_type_symbol
_atom_site_fract_x
_atom_site_fract_y
_atom_site_fract_z
_atom_site_charge
  Si     Si        0.351599999999962    0.244500000000016    0.893900000000031  0.0000
  Si     Si        0.159268678385394    0.234959145770747    0.100117269991831  0.0000
  Ge     Ge        0.650486079009294    0.237065720975136    0.105994837667562  0.0000
  Ge     Ge        0.665891215666384    0.733406094375184    0.103244670212747  0.0000
  Ge     Ge        0.366052427092185    0.753494950546731    0.893050272800525  0.0000
  Ge     Ge        0.866235362047360    0.742372203086269    0.892837356112679  0.0000
  Ge     Ge        0.169309407056328    0.740133001297786    0.107283272129695  0.0000
  Ge     Ge        0.858745725305535    0.251980982440615    0.899430828984330  0.0000
  Ge     Ge        0.280087859095991    0.381267851234694    0.328282276666750  0.0000
  Ge     Ge        0.687380757129343    0.397507200340490    0.688837832073835  0.0000
  Ge     Ge        0.683303840403522    0.600432827443913    0.663905961973512  0.0000
  Ge     Ge        0.273640282688427    0.581287785306509    0.309772431423377  0.0000
  Ge     Ge        0.788938402108098    0.883431464522801    0.331101038234695  0.0000
  Ge     Ge        0.192238116719861    0.902246535976327    0.686770007676176  0.0000
  Ge     Ge        0.185225558393507    0.104376955052752    0.666108125354046  0.0000
  Ge     Ge        0.776054109915705    0.084676742962908    0.309497983617370  0.0000
  Ge     Ge        0.371227400094674    0.396048537361871    0.694118586894251  0.0000
  Ge     Ge        0.598786652734357    0.383667806626150    0.333770402257758  0.0000
  Ge     Ge        0.589089409854259    0.584984473541675    0.307852068975814  0.0000
  Ge     Ge        0.370652789882578    0.597634977737264    0.676539542999519  0.0000
  Ge     Ge        0.878315960988102    0.901016112414302    0.694314046994300  0.0000
  Ge     Ge        0.103343299708450    0.888632537349925    0.327629239121194  0.0000
  Ge     Ge        0.093247727395702    0.091475833143806    0.307817501762642  0.0000
  Ge     Ge        0.869412818563437    0.101998600362963    0.671752370419484  0.0000
  O3     O3        0.514199811236084    0.243531621053300    0.951487773720422  0.0000
  O1     O1        0.540382189464859    0.752449148319768    0.944217691405903  0.0000
  O1     O1        0.040868727130966    0.742373671982124    0.946247277669233  0.0000
  O3     O3        0.033964418568836    0.250092238320249    0.958619198285284  0.0000
  O3     O3        0.309010192432569    0.168453134508453    0.777208994399261  0.0000
  O1     O1        0.650570948545590    0.144324446666759    0.199432130576971  0.0000
  O1     O1        0.672693934077001    0.811281819299093    0.234432846309893  0.0000
  O1     O1        0.317301321568259    0.846837717866980    0.805437772594007  0.0000
  O1     O1        0.812544384405733    0.662079120389830    0.766684289208319  0.0000
  O1     O1        0.159396997522315    0.648910315371502    0.203420210765298  0.0000
  O3     O3        0.167905522392898    0.307510536654943    0.223980052896707  0.0000
  O1     O1        0.813870214906832    0.346071616829638    0.812972764548719  0.0000
  O3     O3        0.307405377391961    0.331930928774085    0.809875354161690  0.0000
  O1     O1        0.666770371853471    0.321371275368811    0.224335994559837  0.0000
  O1     O1        0.647866511131851    0.637381935004425    0.178098235548713  0.0000
  O1     O1        0.304811454663408    0.669748659082158    0.773704149751236  0.0000
  O1     O1        0.815574461611928    0.837006190944293    0.807343441257522  0.0000
  O1     O1        0.174579585281429    0.826248983803672    0.220817239913380  0.0000
  O3     O3        0.151564273179474    0.145944772743026    0.176656624906362  0.0000
  O1     O1        0.802674533471959    0.171077592599107    0.772829890201542  0.0000
  O2     O2        0.293620464862354    0.236068021880717    0.038667589491743  0.0000
  O1     O1        0.796773342403506    0.238938581533037    0.049402467819994  0.0000
  O1     O1        0.815010061566394    0.731447329636295    0.051626768259834  0.0000
  O1     O1        0.318013693033589    0.742886745181613    0.054594705630144  0.0000
  O1     O1        0.424931838911082    0.381684177178013    0.270584751681960  0.0000
  O1     O1        0.544837190193602    0.399202285525997    0.752630835708704  0.0000
  O1     O1        0.545295483746003    0.603371171229007    0.735565147134002  0.0000
  O1     O1        0.415790912130600    0.578159012848640    0.245545863024646  0.0000
  O1     O1        0.929488543872589    0.882924132612164    0.263153767730622  0.0000
  O1     O1        0.052592302179825    0.905349401527832    0.754956317985061  0.0000
  O1     O1        0.043776694772296    0.105416195746156    0.730311927412306  0.0000
  O1     O1        0.919868861268794    0.085173525136141    0.247339330497566  0.0000
  O1     O1        0.318566263240518    0.357324356197888    0.514508483570612  0.0000
  O1     O1        0.646040763835041    0.350048677418422    0.515412215587654  0.0000
  O1     O1        0.636224576730478    0.632756319675451    0.481120312794971  0.0000
  O1     O1        0.321688138083650    0.619378838965224    0.489892493861178  0.0000
  O1     O1        0.837032629440051    0.858992545370950    0.516547014337292  0.0000
  O1     O1        0.150503645561524    0.857670324944249    0.510942325546831  0.0000
  O1     O1        0.144314734517334    0.136560149738796    0.482866896449904  0.0000
  O1     O1        0.820446498384855    0.127211758446761    0.486680518180482  0.0000
  O1     O1        0.210780006996433    0.480238956907222    0.306402486456011  0.0000
  O1     O1        0.738778548351341    0.498645153799759    0.669324150825917  0.0000
  O1     O1        0.721126906483774    0.982716398883905    0.313120056496996  0.0000
  O1     O1        0.245940620806762    0.004086363737810    0.672577275839809  0.0000
  O1     O1        0.315757821613454    0.497047830621596    0.701052780914831  0.0000
  O1     O1        0.654150792588883    0.485312789805950    0.326179748378012  0.0000
  O1     O1        0.815840543739593    0.000645428269225    0.692638719636474  0.0000
  O1     O1        0.155238016192869    0.991301736013144    0.317803796824472  0.0000
