data_c00026.vasp
_audit_creation_method             Generated by GULP
_audit_author_name                 Salvador R. G. Balestra
_symmetry_space_group_name_H-M     'P 1             '
_symmetry_Int_Tables_number        1

loop_
_symmetry_equiv_pos_site_id
_symmetry_equiv_pos_as_xyz
_cell_length_a                       10.3042
_cell_length_b                       15.8632
_cell_length_c                        9.3226
_cell_angle_alpha                   89.3280
_cell_angle_beta                   105.9103
_cell_angle_gamma                   89.8532

loop_
_atom_site_label
_atom_site_type_symbol
_atom_site_fract_x
_atom_site_fract_y
_atom_site_fract_z
_atom_site_charge
  Si     Si        0.306699999999978    0.397900000000050    0.331699999999955  0.0000
  Si     Si        0.306959847615090    0.595560624544059    0.356664797700142  0.0000
  Ge     Ge        0.323065612373195    0.235795275766316    0.913350023579600  0.0000
  Ge     Ge        0.627913600067177    0.241525052629621    0.127879018877488  0.0000
  Ge     Ge        0.619873563878648    0.752845749985759    0.127079242491504  0.0000
  Ge     Ge        0.318739799666302    0.728328608619632    0.915384338802304  0.0000
  Ge     Ge        0.824914492938468    0.734444542137713    0.923594631031761  0.0000
  Ge     Ge        0.127702014881582    0.733442551909960    0.135071312450890  0.0000
  Ge     Ge        0.131237757446086    0.255973942220576    0.131413554044578  0.0000
  Ge     Ge        0.832353533444391    0.233626620821528    0.922387611346316  0.0000
  Ge     Ge        0.700399643191028    0.379377615165490    0.686979713806311  0.0000
  Ge     Ge        0.705747721846445    0.581423721857887    0.711621677116737  0.0000
  Ge     Ge        0.797972627209069    0.896462793751643    0.338482559743815  0.0000
  Ge     Ge        0.202626734393976    0.879701884672620    0.688846429021783  0.0000
  Ge     Ge        0.216336246999299    0.078762192094008    0.709824056356444  0.0000
  Ge     Ge        0.805664292485829    0.101141078479776    0.362776045118298  0.0000
  Ge     Ge        0.384226404779225    0.379514985278172    0.681853084575793  0.0000
  Ge     Ge        0.610271000963357    0.397685854267889    0.325844054368901  0.0000
  Ge     Ge        0.611731438987020    0.601430144891864    0.351031628091385  0.0000
  Ge     Ge        0.388438315418211    0.579937404162599    0.706999045830414  0.0000
  Ge     Ge        0.890806110047287    0.881397630463131    0.696064733044246  0.0000
  Ge     Ge        0.107039384942705    0.895808491262424    0.323507700077710  0.0000
  Ge     Ge        0.116842151519034    0.099135483232474    0.345812396323389  0.0000
  Ge     Ge        0.901942149103160    0.082877865374021    0.718349212842314  0.0000
  O1     O1        0.454006275488776    0.242417125454107    0.069737302973781  0.0000
  O1     O1        0.446845261442614    0.747446027758428    0.071699281550978  0.0000
  O1     O1        0.953765918173827    0.731710315859971    0.084418919419829  0.0000
  O1     O1        0.957733123705674    0.258224730051507    0.078867095198549  0.0000
  O1     O1        0.331338528416345    0.141023522547693    0.827583243599707  0.0000
  O1     O1        0.677644876028665    0.162897111570943    0.258796274315025  0.0000
  O1     O1        0.666972775023513    0.845451503393057    0.218631180145727  0.0000
  O1     O1        0.315757761301641    0.806556459546901    0.785317209822422  0.0000
  O1     O1        0.824600258389958    0.642538051711907    0.827255290456294  0.0000
  O3     O3        0.183570947837350    0.649531135294773    0.257403280929207  0.0000
  O3     O3        0.184162338258491    0.350201333836265    0.220773913720018  0.0000
  O1     O1        0.818735645943221    0.309863300945365    0.786844881623766  0.0000
  O1     O1        0.311247092247098    0.312551510158584    0.779237786136023  0.0000
  O1     O1        0.673959516034360    0.338019677245150    0.209768883523715  0.0000
  O1     O1        0.678392906776885    0.669480074196154    0.248846208150414  0.0000
  O1     O1        0.327500807028620    0.634004282691924    0.831455701115395  0.0000
  O1     O1        0.825897857467835    0.819516272870618    0.809370707406886  0.0000
  O1     O1        0.174476876771749    0.828803868333297    0.219660449048583  0.0000
  O1     O1        0.184890530817028    0.170325726512413    0.248037149295783  0.0000
  O1     O1        0.854601324014420    0.136794660939653    0.853593011201067  0.0000
  O1     O1        0.177869324926938    0.244507410704430    0.970361039741897  0.0000
  O1     O1        0.684441848017696    0.228682990391605    0.974480201785732  0.0000
  O1     O1        0.675479067559460    0.742879094780030    0.971880862131984  0.0000
  O1     O1        0.173792736471101    0.725961782023973    0.973537996400348  0.0000
  O3     O3        0.434721876125726    0.394565549690916    0.265883890505937  0.0000
  O1     O1        0.557190696252855    0.374401812384469    0.748288600333559  0.0000
  O1     O1        0.561096269775767    0.578258434977604    0.769576886103311  0.0000
  O3     O3        0.436002836916519    0.608873665590491    0.294062895379996  0.0000
  O1     O1        0.933328572851820    0.896672233256581    0.263817748447506  0.0000
  O1     O1        0.064137672955030    0.878428718460206    0.758223828341000  0.0000
  O1     O1        0.074213422857820    0.073558681360238    0.771683349620484  0.0000
  O1     O1        0.943054876776146    0.107042543078753    0.291705110322061  0.0000
  O3     O3        0.342300727805048    0.353989585119318    0.494109213804310  0.0000
  O1     O1        0.660996135321463    0.354715733652019    0.501942046828781  0.0000
  O1     O1        0.666264174353395    0.625495049753285    0.535445071714979  0.0000
  O3     O3        0.341187217925442    0.623734256196546    0.528004028867973  0.0000
  O1     O1        0.840762223857838    0.849907276424818    0.512993367414939  0.0000
  O1     O1        0.149630180169460    0.857249217835301    0.503224420250884  0.0000
  O1     O1        0.172474462716857    0.120618116760902    0.532079559862730  0.0000
  O1     O1        0.850711595611287    0.131937064108220    0.546202884227576  0.0000
  O2     O2        0.270497747879043    0.495890183994316    0.352493212576851  0.0000
  O1     O1        0.762973228940468    0.480328651977568    0.706953114149192  0.0000
  O1     O1        0.752019550657312    0.998707618070531    0.358161397716162  0.0000
  O1     O1        0.275571373055065    0.977926106943182    0.706741247425010  0.0000
  O1     O1        0.329519468913172    0.479209574988717    0.703595509792665  0.0000
  O1     O1        0.660525755537160    0.500134177427698    0.325408474306189  0.0000
  O1     O1        0.835878665405446    0.983207748483186    0.704884417766612  0.0000
  O1     O1        0.162928380280661    0.997305223489078    0.316577678922829  0.0000
