data_c00038.vasp
_audit_creation_method             Generated by GULP
_audit_author_name                 Salvador R. G. Balestra
_symmetry_space_group_name_H-M     'P 1             '
_symmetry_Int_Tables_number        1

loop_
_symmetry_equiv_pos_site_id
_symmetry_equiv_pos_as_xyz
_cell_length_a                       10.3215
_cell_length_b                       15.8550
_cell_length_c                        9.2345
_cell_angle_alpha                   89.4085
_cell_angle_beta                   105.5211
_cell_angle_gamma                   89.6216

loop_
_atom_site_label
_atom_site_type_symbol
_atom_site_fract_x
_atom_site_fract_y
_atom_site_fract_z
_atom_site_charge
  Si     Si        0.306699999999978    0.397900000000050    0.331699999999955  0.0000
  Si     Si        0.906533849421571    0.081863893772512    0.719581508046599  0.0000
  Ge     Ge        0.331098933834954    0.228476375400212    0.915464103353831  0.0000
  Ge     Ge        0.635801141746887    0.245057481455059    0.125918262461455  0.0000
  Ge     Ge        0.609202034886378    0.759570672569917    0.125057320939063  0.0000
  Ge     Ge        0.312581908971178    0.724576843142019    0.920098107953332  0.0000
  Ge     Ge        0.809499589911554    0.739341280020592    0.915306966694120  0.0000
  Ge     Ge        0.111366051540797    0.735099934039207    0.131224545441543  0.0000
  Ge     Ge        0.135119303030034    0.253688243142711    0.129929553585137  0.0000
  Ge     Ge        0.839144220175097    0.232774566489632    0.915444373538672  0.0000
  Ge     Ge        0.706647920590798    0.380045458458538    0.680314373511588  0.0000
  Ge     Ge        0.702801733325309    0.580587427351651    0.711504806148725  0.0000
  Ge     Ge        0.294272610579831    0.596651472877162    0.362303482638758  0.0000
  Ge     Ge        0.788341222286800    0.904973700104354    0.331111577250355  0.0000
  Ge     Ge        0.189408301112481    0.872569080972710    0.685883506673883  0.0000
  Ge     Ge        0.215430202023933    0.072056977662386    0.713518366814224  0.0000
  Ge     Ge        0.809506113677249    0.106459254786223    0.369379694639081  0.0000
  Ge     Ge        0.393382777754528    0.374383055348057    0.683316678481833  0.0000
  Ge     Ge        0.609744140484981    0.404034304492574    0.316449913449783  0.0000
  Ge     Ge        0.601521352068116    0.605930139406109    0.346083015778917  0.0000
  Ge     Ge        0.392078962057307    0.574465707785842    0.722826409246751  0.0000
  Ge     Ge        0.880895852111528    0.885341398236964    0.693247396726115  0.0000
  Ge     Ge        0.098344701117538    0.897905799642439    0.319717922609697  0.0000
  Ge     Ge        0.121593789485704    0.099527242557591    0.352079709761701  0.0000
  O1     O1        0.462863366728998    0.236552946181136    0.070323857998055  0.0000
  O1     O1        0.436677986633305    0.755657891398910    0.073026631268169  0.0000
  O1     O1        0.938054949894773    0.738806275654847    0.076312512286117  0.0000
  O1     O1        0.962194505110516    0.257453631035763    0.073699260984919  0.0000
  O1     O1        0.330329985824548    0.129458937642560    0.839483630454584  0.0000
  O1     O1        0.692560541817975    0.178089306278780    0.276482945926454  0.0000
  O1     O1        0.659444795724545    0.853892782037619    0.208999009234788  0.0000
  O1     O1        0.300015932129498    0.796291109126595    0.775948395399310  0.0000
  O1     O1        0.816968253011067    0.647484638402738    0.819516916333042  0.0000
  O1     O1        0.160716266233128    0.655748957937252    0.263003461993425  0.0000
  O3     O3        0.189441318673408    0.347037598178733    0.219636262609563  0.0000
  O1     O1        0.824090923194148    0.309314733055365    0.779864391015542  0.0000
  O1     O1        0.325307781984608    0.301353804429678    0.775621433953447  0.0000
  O1     O1        0.667166782817486    0.346744277562429    0.190375617651510  0.0000
  O1     O1        0.669852209130934    0.678741289623355    0.252407200557288  0.0000
  O1     O1        0.339491594805746    0.626265289084530    0.858424506598961  0.0000
  O1     O1        0.805414166768964    0.825787563501680    0.800669649279415  0.0000
  O1     O1        0.161873766647493    0.831638197326094    0.210388228289610  0.0000
  O1     O1        0.188035567096902    0.168895425186355    0.249265641308030  0.0000
  O3     O3        0.867235441261989    0.134992341389776    0.848046823909104  0.0000
  O1     O1        0.185230028606863    0.242453230087075    0.969477072975495  0.0000
  O1     O1        0.694092222688204    0.224509644459410    0.973982690579444  0.0000
  O1     O1        0.660801167986725    0.744287639672735    0.965796507996691  0.0000
  O1     O1        0.166060194838534    0.719623813167848    0.974915311748284  0.0000
  O3     O3        0.434656393033430    0.405191320899561    0.264479787638094  0.0000
  O1     O1        0.566094252179499    0.371980087681305    0.746332934117826  0.0000
  O1     O1        0.564443891115645    0.570031833386535    0.779642086187238  0.0000
  O1     O1        0.427816667036496    0.612060119980641    0.287439812657896  0.0000
  O1     O1        0.925650105423744    0.905071895498697    0.259243491591181  0.0000
  O1     O1        0.051658273658257    0.870520571624900    0.758184850026752  0.0000
  O3     O3        0.065968669209605    0.066203483661306    0.765033870394884  0.0000
  O1     O1        0.948845309197004    0.109821405569263    0.301279576332458  0.0000
  O3     O3        0.352832703740614    0.351494636398941    0.493309956347485  0.0000
  O1     O1        0.667460445014370    0.359087144945622    0.492159830792305  0.0000
  O1     O1        0.647415462259824    0.624653566946466    0.534743543289263  0.0000
  O1     O1        0.336551878193459    0.622869882196462    0.549174765795573  0.0000
  O1     O1        0.827784543895576    0.858521235632876    0.506934092620237  0.0000
  O1     O1        0.134596421905938    0.854385697931744    0.497682531426099  0.0000
  O1     O1        0.184201892841037    0.119416953671322    0.539593308771897  0.0000
  O3     O3        0.859624004758969    0.130214868681156    0.559603216917153  0.0000
  O3     O3        0.252829167704546    0.490714005435706    0.354582266346273  0.0000
  O1     O1        0.768010231929327    0.481436402662272    0.703897467811901  0.0000
  O1     O1        0.741228221902666    0.007893381938508    0.346336695114590  0.0000
  O1     O1        0.266624805315377    0.969536562469317    0.708949040081056  0.0000
  O1     O1        0.334878668721450    0.472538334379915    0.711320634003541  0.0000
  O1     O1        0.658506186203886    0.506763221867283    0.316875614881700  0.0000
  O3     O3        0.837350405498404    0.990723014016932    0.705172266738820  0.0000
  O1     O1        0.163900711773915    0.996949494620756    0.321823831687234  0.0000
