data_c00008.vasp
_audit_creation_method             Generated by GULP
_audit_author_name                 Salvador R. G. Balestra
_symmetry_space_group_name_H-M     'P 1             '
_symmetry_Int_Tables_number        1

loop_
_symmetry_equiv_pos_site_id
_symmetry_equiv_pos_as_xyz
_cell_length_a                       10.2481
_cell_length_b                       15.8842
_cell_length_c                        9.3048
_cell_angle_alpha                   89.3470
_cell_angle_beta                   105.6705
_cell_angle_gamma                   90.0984

loop_
_atom_site_label
_atom_site_type_symbol
_atom_site_fract_x
_atom_site_fract_y
_atom_site_fract_z
_atom_site_charge
  Si     Si        0.351599999999962    0.244500000000016    0.893900000000031  0.0000
  Si     Si        0.330406890912457    0.405563350141905    0.321628942519628  0.0000
  Ge     Ge        0.650836298976208    0.252919491168068    0.103119467007090  0.0000
  Ge     Ge        0.641235920235278    0.764189295589616    0.108454912255172  0.0000
  Ge     Ge        0.340877060241755    0.739098688625480    0.899653730304511  0.0000
  Ge     Ge        0.840858779921222    0.747852608175297    0.898533868832064  0.0000
  Ge     Ge        0.143219206703846    0.745864314183072    0.113916472662100  0.0000
  Ge     Ge        0.166067286307338    0.262049291020716    0.110262530987360  0.0000
  Ge     Ge        0.862227460839849    0.245261702554159    0.901421979896361  0.0000
  Ge     Ge        0.732661376591007    0.390721043983482    0.667527544947823  0.0000
  Ge     Ge        0.729615878835784    0.591666900467503    0.692451961252329  0.0000
  Ge     Ge        0.322700915223493    0.603938672006317    0.339888383756955  0.0000
  Ge     Ge        0.821217649383230    0.909232545897901    0.315937510673245  0.0000
  Ge     Ge        0.226172166561585    0.891952683613000    0.674826645158964  0.0000
  Ge     Ge        0.240559336976262    0.091281775987390    0.692893067214791  0.0000
  Ge     Ge        0.830704752794476    0.113291361804954    0.339104034433976  0.0000
  Ge     Ge        0.414985324224880    0.387401889421684    0.670784363547157  0.0000
  Ge     Ge        0.638451463007888    0.409603763895265    0.308261448257709  0.0000
  Ge     Ge        0.634144967323536    0.611221316694235    0.329189499571859  0.0000
  Ge     Ge        0.415020618983903    0.588269166444201    0.698585950165467  0.0000
  Ge     Ge        0.910308872297795    0.893466243330358    0.673142152446548  0.0000
  Ge     Ge        0.134131536415995    0.906836158351644    0.308297038488402  0.0000
  Ge     Ge        0.146156445515568    0.109080320421352    0.328375617557498  0.0000
  Ge     Ge        0.922920701808878    0.094424912865050    0.694020273399818  0.0000
  O3     O3        0.474806110856217    0.249530466171876    0.041449462740308  0.0000
  O1     O1        0.467323572696227    0.759833178337426    0.057587311345199  0.0000
  O1     O1        0.968548269788775    0.749126980158026    0.060238753309855  0.0000
  O1     O1        0.992070550326451    0.265576687725756    0.055789490262996  0.0000
  O3     O3        0.355493166178904    0.156370044859633    0.811033568898731  0.0000
  O1     O1        0.703242869138559    0.175600181095975    0.235227121833961  0.0000
  O1     O1        0.691248338263570    0.858054353631153    0.194352377503907  0.0000
  O1     O1        0.337423083426950    0.817224854940065    0.769207357587093  0.0000
  O1     O1        0.847114244264169    0.656371684883645    0.802945605199016  0.0000
  O1     O1        0.190954030202077    0.662450549794562    0.235571178373046  0.0000
  O3     O3        0.216715386314750    0.354287007384879    0.204152495020746  0.0000
  O1     O1        0.852240520901774    0.322667923406248    0.768623566297012  0.0000
  O3     O3        0.347915606340237    0.318952589728033    0.775407626324756  0.0000
  O1     O1        0.691927655281114    0.349914414323341    0.184100079006741  0.0000
  O1     O1        0.702578232190767    0.682513379199789    0.232254162756744  0.0000
  O1     O1        0.356227988621530    0.642700409959756    0.825379301092148  0.0000
  O1     O1        0.838796165946578    0.832566130997705    0.782773821120851  0.0000
  O1     O1        0.198598867437526    0.839292755701000    0.202869011031322  0.0000
  O1     O1        0.216984311802349    0.176789432387765    0.226486585835297  0.0000
  O1     O1        0.875203998038582    0.148198793828220    0.828921020075449  0.0000
  O3     O3        0.214727866835857    0.251782531006465    0.947263581286751  0.0000
  O1     O1        0.713309606406971    0.242487082176189    0.953461841316946  0.0000
  O1     O1        0.690961403203656    0.752288639260789    0.948592716434554  0.0000
  O1     O1        0.193046267299595    0.736543816395476    0.954037937912971  0.0000
  O3     O3        0.462880312476208    0.412748429763150    0.261785214258253  0.0000
  O1     O1        0.588575716999938    0.385149080290274    0.729249721633354  0.0000
  O1     O1        0.588683382277002    0.584695455833828    0.758491780067071  0.0000
  O1     O1        0.459230235343362    0.615745210698971    0.268260024072267  0.0000
  O1     O1        0.960053013761347    0.910254446172972    0.245818589428108  0.0000
  O1     O1        0.084051586807286    0.889509721861624    0.740090452597909  0.0000
  O1     O1        0.095799027114785    0.083215522351141    0.749708510273669  0.0000
  O1     O1        0.971778172796923    0.118321065108461    0.272287300367201  0.0000
  O3     O3        0.367779065517186    0.360081394284823    0.483564694529904  0.0000
  O1     O1        0.696000336803723    0.365202510622467    0.482629935343281  0.0000
  O1     O1        0.678752770093028    0.634066708032072    0.515299809351703  0.0000
  O1     O1        0.363529688931027    0.633786202740664    0.523685732286939  0.0000
  O1     O1        0.862625370181969    0.862081252813242    0.489859212829370  0.0000
  O1     O1        0.175841451476959    0.869380793001674    0.488664089949316  0.0000
  O1     O1        0.201767487591383    0.131873674764496    0.514699696927486  0.0000
  O1     O1        0.874896734441664    0.144192016021027    0.522718675456374  0.0000
  O3     O3        0.276621012125554    0.498690284475633    0.339078685703475  0.0000
  O1     O1        0.792862964543684    0.492426550991193    0.686199520019930  0.0000
  O1     O1        0.774215597531285    0.011435145990034    0.333363544929426  0.0000
  O1     O1        0.300743116883808    0.990210928967254    0.695765075438297  0.0000
  O1     O1        0.357349517400896    0.486146265902994    0.691765102427085  0.0000
  O1     O1        0.691524238907220    0.511636978133853    0.306027607555663  0.0000
  O1     O1        0.855047860486556    0.995245238525879    0.678685557528008  0.0000
  O1     O1        0.193553935033569    0.007541884663595    0.303004366915160  0.0000
