data_c00033.vasp
_audit_creation_method             Generated by GULP
_audit_author_name                 Salvador R. G. Balestra
_symmetry_space_group_name_H-M     'P 1             '
_symmetry_Int_Tables_number        1

loop_
_symmetry_equiv_pos_site_id
_symmetry_equiv_pos_as_xyz
_cell_length_a                       10.3050
_cell_length_b                       15.8790
_cell_length_c                        9.3107
_cell_angle_alpha                   89.4343
_cell_angle_beta                   105.2223
_cell_angle_gamma                   90.2317

loop_
_atom_site_label
_atom_site_type_symbol
_atom_site_fract_x
_atom_site_fract_y
_atom_site_fract_z
_atom_site_charge
  Si     Si        0.306699999999978    0.397900000000050    0.331699999999955  0.0000
  Si     Si        0.609093667366624    0.599566429860685    0.338223041910745  0.0000
  Ge     Ge        0.392836646829863    0.230900692765756    0.906978429910437  0.0000
  Ge     Ge        0.689378608499620    0.253301347346524    0.118718461119214  0.0000
  Ge     Ge        0.680196709577318    0.743960561886976    0.124869324465867  0.0000
  Ge     Ge        0.381666376041118    0.743622602092256    0.908129929909775  0.0000
  Ge     Ge        0.877958130573723    0.734545386987586    0.909959818893910  0.0000
  Ge     Ge        0.179242668215092    0.745628799900222    0.117826606348783  0.0000
  Ge     Ge        0.196381854123724    0.247895807220589    0.122856837107166  0.0000
  Ge     Ge        0.893590926627124    0.251589088892044    0.911533756259420  0.0000
  Ge     Ge        0.710510092653309    0.388387774470098    0.676899768584604  0.0000
  Ge     Ge        0.703531032763244    0.591226189552074    0.686512275854211  0.0000
  Ge     Ge        0.303366909275827    0.595386329136335    0.341950911663947  0.0000
  Ge     Ge        0.796345443700449    0.900286162523603    0.333552661180239  0.0000
  Ge     Ge        0.202184827850463    0.884965700965215    0.681001902069291  0.0000
  Ge     Ge        0.212809890668911    0.088896867233018    0.694680154838675  0.0000
  Ge     Ge        0.806723849780361    0.102077387424906    0.346155261841868  0.0000
  Ge     Ge        0.398934526171873    0.385675108852980    0.689051284545872  0.0000
  Ge     Ge        0.609616462718499    0.399951500587156    0.322602105857825  0.0000
  Ge     Ge        0.392532762573099    0.586534595175984    0.704480092049323  0.0000
  Ge     Ge        0.892524931323334    0.890273574316733    0.698407942818686  0.0000
  Ge     Ge        0.108398407392631    0.896037111635869    0.325985609984811  0.0000
  Ge     Ge        0.120399522235205    0.099270845253598    0.339309485016059  0.0000
  Ge     Ge        0.901888232063752    0.092469601147997    0.710424446198420  0.0000
  O1     O1        0.565582869166906    0.233338211733557    0.959898045390362  0.0000
  O1     O1        0.554854168409205    0.747156898964761    0.963582395796760  0.0000
  O1     O1        0.051040247915501    0.731616940473683    0.961680186691292  0.0000
  O1     O1        0.066552407502211    0.256650784866347    0.965952965206553  0.0000
  O1     O1        0.343232980758973    0.138592925734451    0.815943048799687  0.0000
  O1     O1        0.694112710856855    0.174321609836464    0.247632057503449  0.0000
  O1     O1        0.679763049676479    0.833422218821405    0.227014755937646  0.0000
  O1     O1        0.330056930019633    0.825271326011927    0.785237258933201  0.0000
  O1     O1        0.828147592688667    0.649173783317325    0.798295588062484  0.0000
  O1     O1        0.185121720533076    0.661479917195719    0.238205699862264  0.0000
  O3     O3        0.197130397448012    0.334749639328467    0.235806935592920  0.0000
  O1     O1        0.839615476859000    0.330590865285278    0.783937493921363  0.0000
  O1     O1        0.332235362930278    0.312658202125493    0.784046866334386  0.0000
  O1     O1        0.667280857683037    0.349709053805824    0.191471048193925  0.0000
  O3     O3        0.673364497020041    0.655546088256632    0.231969629449719  0.0000
  O1     O1        0.331190379743035    0.650063322047516    0.817991058202353  0.0000
  O1     O1        0.824997263982161    0.824265973438426    0.805374933783478  0.0000
  O1     O1        0.167298385777498    0.839414732437242    0.201991367973014  0.0000
  O1     O1        0.186768821101396    0.157795270918058    0.221718008102740  0.0000
  O1     O1        0.843613117536179    0.156731277969484    0.825261500367774  0.0000
  O1     O1        0.341959154073469    0.241036808921362    0.066742249077882  0.0000
  O1     O1        0.838304645610492    0.259341277345959    0.068567153894667  0.0000
  O1     O1        0.827250398501121    0.735090343409470    0.070742990810263  0.0000
  O1     O1        0.326863921044713    0.750925320190976    0.064825436117335  0.0000
  O3     O3        0.435761106538565    0.398370669859279    0.264716375459356  0.0000
  O1     O1        0.571924840728155    0.381835794835008    0.746957166583291  0.0000
  O1     O1        0.565664815226080    0.589420554489114    0.756921558163002  0.0000
  O3     O3        0.447461650963409    0.602490683838899    0.279448901532147  0.0000
  O1     O1        0.936034453680616    0.900956639377990    0.265575028465951  0.0000
  O1     O1        0.065756497870290    0.883546544727837    0.754813364965884  0.0000
  O1     O1        0.074951968983167    0.091233547875573    0.765667962624660  0.0000
  O1     O1        0.947571980178308    0.102581792463401    0.279961018984783  0.0000
  O3     O3        0.356089760941868    0.364668868732415    0.500758138424046  0.0000
  O1     O1        0.669136535137987    0.354570433391658    0.494958801353269  0.0000
  O3     O3        0.653138689642840    0.632851319690861    0.506859769581735  0.0000
  O1     O1        0.337078416457852    0.623124765679446    0.524428071462058  0.0000
  O1     O1        0.841679769125688    0.863735980048141    0.513988400740843  0.0000
  O1     O1        0.153706985650069    0.850417510769088    0.500172779039819  0.0000
  O1     O1        0.172278029393190    0.134201384690720    0.519720174184954  0.0000
  O1     O1        0.852910750158697    0.129307739400889    0.530148925454669  0.0000
  O3     O3        0.247471076600242    0.491538884674509    0.327361246910961  0.0000
  O1     O1        0.761987413820237    0.491263529446479    0.680096219706030  0.0000
  O1     O1        0.738701531590846    0.002021679841516    0.329898349867847  0.0000
  O1     O1        0.257815424207893    0.986734700650809    0.676829424389121  0.0000
  O1     O1        0.342578147883505    0.484130799265856    0.716631504308978  0.0000
  O3     O3        0.660491533211455    0.504216600376752    0.336696606185437  0.0000
  O1     O1        0.842851791488563    0.991826364319158    0.717290685157017  0.0000
  O1     O1        0.171242082327209    0.996586988599579    0.334778500365985  0.0000
