data_c00013.vasp
_audit_creation_method             Generated by GULP
_audit_author_name                 Salvador R. G. Balestra
_symmetry_space_group_name_H-M     'P 1             '
_symmetry_Int_Tables_number        1

loop_
_symmetry_equiv_pos_site_id
_symmetry_equiv_pos_as_xyz
_cell_length_a                       10.2612
_cell_length_b                       15.8751
_cell_length_c                        9.3020
_cell_angle_alpha                   90.4777
_cell_angle_beta                   105.7474
_cell_angle_gamma                   90.4675

loop_
_atom_site_label
_atom_site_type_symbol
_atom_site_fract_x
_atom_site_fract_y
_atom_site_fract_z
_atom_site_charge
  Si     Si        0.351599999999962    0.244500000000016    0.893900000000031  0.0000
  Si     Si        0.168461296485237    0.907100689861589    0.692859976971619  0.0000
  Ge     Ge        0.647268487326949    0.244172283393960    0.104597652174534  0.0000
  Ge     Ge        0.638617678188763    0.742585805255900    0.101451014407249  0.0000
  Ge     Ge        0.338615754896755    0.760405140619435    0.893923795059139  0.0000
  Ge     Ge        0.845171684942591    0.751124530249294    0.896761904354041  0.0000
  Ge     Ge        0.148901627765044    0.742160187368194    0.114431951471704  0.0000
  Ge     Ge        0.155232435282074    0.236156612265148    0.101433615210202  0.0000
  Ge     Ge        0.850834862442249    0.261350547917806    0.895522037471934  0.0000
  Ge     Ge        0.269199669604456    0.385121624922222    0.336653888620878  0.0000
  Ge     Ge        0.677456122632092    0.406775349588789    0.687557565096537  0.0000
  Ge     Ge        0.665627067476277    0.610152363087749    0.662562953358365  0.0000
  Ge     Ge        0.253583795892152    0.584259287635807    0.316033318212959  0.0000
  Ge     Ge        0.770725333523880    0.888259556001980    0.336592754737716  0.0000
  Ge     Ge        0.174296586798721    0.105441900564409    0.671300185536479  0.0000
  Ge     Ge        0.770024381315398    0.090404380028174    0.311045939899898  0.0000
  Ge     Ge        0.365966198938070    0.401091865631049    0.702365843791230  0.0000
  Ge     Ge        0.583799292374909    0.390542427898306    0.330661847002174  0.0000
  Ge     Ge        0.568132389770756    0.591697555030761    0.306438321399411  0.0000
  Ge     Ge        0.353999182182851    0.603299429934894    0.681440312822652  0.0000
  Ge     Ge        0.859883108513277    0.908591351839097    0.696615724024780  0.0000
  Ge     Ge        0.088016008763457    0.887953689973088    0.342267045080321  0.0000
  Ge     Ge        0.086722473748725    0.089532593956256    0.311796473136102  0.0000
  Ge     Ge        0.860303781383425    0.110181244548453    0.673561634796921  0.0000
  O3     O3        0.514865649585342    0.245335834069645    0.944123288781983  0.0000
  O1     O1        0.512892189111071    0.765123349164095    0.944055234349718  0.0000
  O1     O1        0.019630914523545    0.749810938749541    0.955655529185136  0.0000
  O1     O1        0.024418221654579    0.255674493805631    0.948808925400228  0.0000
  O3     O3        0.303346561585127    0.167042175107594    0.779712488218131  0.0000
  O1     O1        0.648048045391747    0.151921983889538    0.199751477290070  0.0000
  O1     O1        0.651172248951431    0.819385115277082    0.235801416355547  0.0000
  O3     O3        0.281602863664430    0.853672139539767    0.806331316951411  0.0000
  O1     O1        0.792694625526360    0.673943326633017    0.763848411798005  0.0000
  O1     O1        0.137967734079535    0.648068230168251    0.201893139908344  0.0000
  O1     O1        0.158758584307191    0.311369239914758    0.236578924904546  0.0000
  O1     O1        0.806721979852087    0.355749325576855    0.809184335717902  0.0000
  O3     O3        0.303371680919231    0.332714306515079    0.812348801985991  0.0000
  O1     O1        0.652523633735444    0.328966799660267    0.220148912959633  0.0000
  O1     O1        0.617044961545893    0.645844814577011    0.171844275656646  0.0000
  O1     O1        0.285368119167726    0.674174084647262    0.778941864440334  0.0000
  O1     O1        0.801615179844798    0.848309547386595    0.817199512818320  0.0000
  O1     O1        0.160969929495737    0.820737465149823    0.245208762923479  0.0000
  O1     O1        0.147600419152507    0.140432037529672    0.181968614062212  0.0000
  O1     O1        0.790231299584572    0.180011146467386    0.770245795442475  0.0000
  O3     O3        0.302031231362311    0.236396272957084    0.042244906614506  0.0000
  O1     O1        0.794822116564990    0.250035552453957    0.050915044280133  0.0000
  O1     O1        0.787764449211277    0.738057843896350    0.050276025446707  0.0000
  O1     O1        0.295264163372265    0.748311167628618    0.057703056665529  0.0000
  O1     O1        0.410134414431685    0.385372420688204    0.270406849689315  0.0000
  O1     O1        0.539335442008100    0.407367130636298    0.759008409229744  0.0000
  O1     O1        0.528346293799598    0.612689644640602    0.735407188375327  0.0000
  O1     O1        0.395474145939674    0.580612617005685    0.252036744095387  0.0000
  O1     O1        0.914566800040901    0.882718519072185    0.275139370287504  0.0000
  O3     O3        0.035834987681000    0.913684668326156    0.752370262485589  0.0000
  O1     O1        0.035003664826626    0.114926254533779    0.737272569189095  0.0000
  O1     O1        0.912988233116976    0.087549905468961    0.248595519208977  0.0000
  O1     O1        0.317297304585308    0.362166422014191    0.523030664937298  0.0000
  O1     O1        0.634688929980626    0.359272862685339    0.514065697251009  0.0000
  O1     O1        0.617553506504101    0.640701130768045    0.478734648283403  0.0000
  O1     O1        0.299030794487733    0.624687263119203    0.494750496042273  0.0000
  O1     O1        0.808681303629482    0.863419844421784    0.522020213420558  0.0000
  O3     O3        0.128610689466939    0.862616903552003    0.530319107688897  0.0000
  O1     O1        0.138015190791379    0.134895957926423    0.487545285244660  0.0000
  O1     O1        0.817406297847224    0.133812057381570    0.487748363539926  0.0000
  O1     O1        0.195087271793769    0.482895197295824    0.317529296228104  0.0000
  O1     O1        0.724360876879474    0.508947116370146    0.668045757314979  0.0000
  O1     O1        0.710829023994234    0.989703901304526    0.316956955334403  0.0000
  O3     O3        0.224105793344437    0.000944141982742    0.679011919505274  0.0000
  O1     O1        0.306691512773007    0.501469381392573    0.710324380552612  0.0000
  O1     O1        0.636553190515233    0.492760866728894    0.321065359110616  0.0000
  O1     O1        0.803586794241904    0.009728773933176    0.694509049963159  0.0000
  O1     O1        0.143778809247286    0.987968294495776    0.323425502471223  0.0000
