data_c00030.vasp
_audit_creation_method             Generated by GULP
_audit_author_name                 Salvador R. G. Balestra
_symmetry_space_group_name_H-M     'P 1             '
_symmetry_Int_Tables_number        1

loop_
_symmetry_equiv_pos_site_id
_symmetry_equiv_pos_as_xyz
_cell_length_a                       10.2980
_cell_length_b                       15.8773
_cell_length_c                        9.3091
_cell_angle_alpha                   89.2848
_cell_angle_beta                   105.9290
_cell_angle_gamma                   89.8654

loop_
_atom_site_label
_atom_site_type_symbol
_atom_site_fract_x
_atom_site_fract_y
_atom_site_fract_z
_atom_site_charge
  Si     Si        0.306699999999978    0.397900000000050    0.331699999999955  0.0000
  Si     Si        0.813046187878917    0.104664998435498    0.353830183510086  0.0000
  Ge     Ge        0.332770815841929    0.232961616571695    0.913730046028299  0.0000
  Ge     Ge        0.636624761887017    0.244145069838710    0.126311998673563  0.0000
  Ge     Ge        0.611395948474847    0.760908868295920    0.119086291771351  0.0000
  Ge     Ge        0.312724016628773    0.729548407975963    0.911152489969219  0.0000
  Ge     Ge        0.810609022165954    0.742745037191295    0.909095346788446  0.0000
  Ge     Ge        0.114196079436057    0.737715135827512    0.123073682992006  0.0000
  Ge     Ge        0.135282164600363    0.254668905422545    0.125611298183580  0.0000
  Ge     Ge        0.833895456256982    0.238844405263573    0.912731452866745  0.0000
  Ge     Ge        0.707230579588719    0.386248015002370    0.680951635956535  0.0000
  Ge     Ge        0.702239929237448    0.586461332417309    0.702308934152097  0.0000
  Ge     Ge        0.294893069650696    0.597443717718797    0.351696115159419  0.0000
  Ge     Ge        0.792435860489152    0.905406148259269    0.323100238508717  0.0000
  Ge     Ge        0.190903491979431    0.879010460512890    0.680144471901633  0.0000
  Ge     Ge        0.215256646485914    0.078891401078735    0.706582742661416  0.0000
  Ge     Ge        0.392321752369772    0.380274481752930    0.682038837947457  0.0000
  Ge     Ge        0.611118580634994    0.403378942387329    0.319363969551057  0.0000
  Ge     Ge        0.604171352382381    0.606374652506509    0.338279714069377  0.0000
  Ge     Ge        0.388952189377674    0.580719926752747    0.710134076356428  0.0000
  Ge     Ge        0.878199533916237    0.887043689760466    0.681956603779299  0.0000
  Ge     Ge        0.101471383370038    0.898179744973111    0.314704809004062  0.0000
  Ge     Ge        0.119619934199740    0.100098081175543    0.344666682752063  0.0000
  Ge     Ge        0.898243475666018    0.087638757648637    0.703565608914170  0.0000
  O1     O1        0.462874027386929    0.236610639192011    0.072556588332591  0.0000
  O1     O1        0.438136291779113    0.756173920742041    0.066427116672577  0.0000
  O1     O1        0.940301380138362    0.743108609168113    0.068911710290731  0.0000
  O1     O1        0.961642604099205    0.257140616638351    0.070340171003258  0.0000
  O1     O1        0.334088659808129    0.137989170328074    0.826748588686234  0.0000
  O3     O3        0.698473107984805    0.166387321092192    0.258113990397768  0.0000
  O1     O1        0.659615355606501    0.855607004788134    0.203845901873433  0.0000
  O1     O1        0.302555369830590    0.803949493760741    0.772708335039356  0.0000
  O1     O1        0.817626297027187    0.651177739209091    0.814134473781679  0.0000
  O1     O1        0.161425263275094    0.654858056292892    0.246898621695214  0.0000
  O3     O3        0.189242503491802    0.346673393247820    0.219438779424850  0.0000
  O1     O1        0.826515714503905    0.318130834228242    0.783584712879771  0.0000
  O1     O1        0.326911175098787    0.311135652081978    0.783381049601070  0.0000
  O1     O1        0.672692764462105    0.342441973061646    0.202852957070661  0.0000
  O1     O1        0.671820271863685    0.678563492291746    0.242700213253624  0.0000
  O1     O1        0.334266940327124    0.632664928869502    0.842548425983588  0.0000
  O1     O1        0.805419955389385    0.826343668707198    0.789738432743440  0.0000
  O1     O1        0.168405606332880    0.831773922985923    0.210127995053452  0.0000
  O1     O1        0.185935918997846    0.168533816110595    0.241899525043992  0.0000
  O1     O1        0.844437083664642    0.144330960868959    0.830411145341115  0.0000
  O1     O1        0.185893736575907    0.244272745722154    0.967120553741870  0.0000
  O1     O1        0.687404731382016    0.235104778223936    0.968307835893364  0.0000
  O1     O1        0.662534689502808    0.748375414995957    0.960661660653303  0.0000
  O1     O1        0.165794189117057    0.726266761628358    0.965276658424841  0.0000
  O3     O3        0.435412027155884    0.403179630229481    0.265761685885989  0.0000
  O1     O1        0.565545605387223    0.380035963138319    0.744691232338231  0.0000
  O1     O1        0.562103290648343    0.578063261304493    0.767487758785238  0.0000
  O1     O1        0.429792759518000    0.611643122431187    0.279374581396555  0.0000
  O1     O1        0.927718016764633    0.900658651429941    0.249788579732359  0.0000
  O1     O1        0.051316158211356    0.879332364490584    0.748207139415359  0.0000
  O1     O1        0.070355878995678    0.078726894986542    0.764289372279791  0.0000
  O3     O3        0.943883590830464    0.106728802902683    0.290725416286342  0.0000
  O3     O3        0.349828649177345    0.353439942263695    0.494386208664817  0.0000
  O1     O1        0.666885971314072    0.361158215291988    0.495756532365255  0.0000
  O1     O1        0.651107658075234    0.628586267871534    0.524730157059786  0.0000
  O1     O1        0.334488190345218    0.627188779753122    0.535560683293561  0.0000
  O1     O1        0.829099346915094    0.858582676939672    0.497183351469845  0.0000
  O1     O1        0.137811598404218    0.858067433761085    0.493750184950266  0.0000
  O1     O1        0.179790224549463    0.122418726205260    0.529711871745569  0.0000
  O3     O3        0.855935398898918    0.133152552077077    0.525768314768919  0.0000
  O3     O3        0.254445529323410    0.491496737041192    0.349883840559825  0.0000
  O1     O1        0.767821259280243    0.487603036801787    0.697544372425436  0.0000
  O3     O3        0.755334829733223    0.010284818489410    0.344960616249413  0.0000
  O1     O1        0.266563688321192    0.976460531526426    0.702334394176499  0.0000
  O1     O1        0.331972259199953    0.478918331363413    0.701382882346095  0.0000
  O1     O1        0.659213046226448    0.506257917295741    0.313441350212450  0.0000
  O1     O1        0.829178207809679    0.989502654377705    0.694775522474891  0.0000
  O1     O1        0.163200602578175    0.998258061490885    0.314401414959571  0.0000
