data_c00025.vasp
_audit_creation_method             Generated by GULP
_audit_author_name                 Salvador R. G. Balestra
_symmetry_space_group_name_H-M     'P 1             '
_symmetry_Int_Tables_number        1

loop_
_symmetry_equiv_pos_site_id
_symmetry_equiv_pos_as_xyz
_cell_length_a                       10.3051
_cell_length_b                       15.8304
_cell_length_c                        9.2829
_cell_angle_alpha                   89.3189
_cell_angle_beta                   105.7010
_cell_angle_gamma                   90.0553

loop_
_atom_site_label
_atom_site_type_symbol
_atom_site_fract_x
_atom_site_fract_y
_atom_site_fract_z
_atom_site_charge
  Si     Si        0.306699999999978    0.397900000000050    0.331699999999955  0.0000
  Si     Si        0.695335318858337    0.579581231709778    0.704451635588065  0.0000
  Ge     Ge        0.324651036499385    0.230091890099297    0.910497364930502  0.0000
  Ge     Ge        0.628174290752051    0.245463198654733    0.125462726008973  0.0000
  Ge     Ge        0.607406600540034    0.757622335192821    0.124036616453099  0.0000
  Ge     Ge        0.311827574168087    0.725096453273516    0.915385239197864  0.0000
  Ge     Ge        0.802514079660102    0.733041363496696    0.908987492592740  0.0000
  Ge     Ge        0.107823747637794    0.732743581060244    0.122050932977444  0.0000
  Ge     Ge        0.133651473382058    0.253191821955708    0.128623051737944  0.0000
  Ge     Ge        0.834057864913631    0.237137168434503    0.919886624191622  0.0000
  Ge     Ge        0.701761210831643    0.382484516366867    0.684381821814596  0.0000
  Ge     Ge        0.293542602783351    0.596963797460414    0.358412878477671  0.0000
  Ge     Ge        0.787574161190798    0.901656441627511    0.329291222048653  0.0000
  Ge     Ge        0.189703812899756    0.872623211016717    0.679478816924858  0.0000
  Ge     Ge        0.213948685395452    0.072327158877538    0.710541344503698  0.0000
  Ge     Ge        0.805502532007106    0.105118508951512    0.361934905081661  0.0000
  Ge     Ge        0.387161388306046    0.375754825641889    0.680960086558904  0.0000
  Ge     Ge        0.612880005286830    0.404076460014402    0.322834867133129  0.0000
  Ge     Ge        0.604349249260868    0.604903482398583    0.348809071228330  0.0000
  Ge     Ge        0.389397461678620    0.576922885549137    0.714533128763611  0.0000
  Ge     Ge        0.877434710181000    0.880830110094127    0.687403952620936  0.0000
  Ge     Ge        0.097599974264363    0.895631374128933    0.314454019407354  0.0000
  Ge     Ge        0.116172734045331    0.097917130504552    0.346298372948450  0.0000
  Ge     Ge        0.900816809898255    0.082604878807544    0.718442999311736  0.0000
  O1     O1        0.454558853429391    0.240566081957307    0.067434462393430  0.0000
  O1     O1        0.434465837549211    0.754453862023738    0.071240635819607  0.0000
  O1     O1        0.934232449640003    0.730616860459641    0.066834571340439  0.0000
  O1     O1        0.960484940637802    0.259304028424679    0.076863001649125  0.0000
  O1     O1        0.331748680274659    0.133648157443010    0.828413072079202  0.0000
  O1     O1        0.681262864379702    0.170659313800940    0.263181847467594  0.0000
  O1     O1        0.657322050009288    0.853217888769614    0.203589653880900  0.0000
  O1     O1        0.300303077747853    0.797325322172961    0.772939212469408  0.0000
  O3     O3        0.802913297737661    0.640481663940497    0.809951623031689  0.0000
  O1     O1        0.160682675875912    0.654160453048253    0.253828749187813  0.0000
  O3     O3        0.192675369566470    0.347004470417115    0.214365479250858  0.0000
  O1     O1        0.822770571959059    0.315623674252289    0.787014073519775  0.0000
  O1     O1        0.313962852253363    0.306243733709676    0.774985577161817  0.0000
  O1     O1        0.669401051933038    0.344210828179373    0.200892334423628  0.0000
  O1     O1        0.670637841345498    0.679755519920922    0.256665025713319  0.0000
  O1     O1        0.343626985486023    0.627523749311804    0.854198275004436  0.0000
  O1     O1        0.805908822404341    0.818350546219497    0.795439642625739  0.0000
  O1     O1        0.156027311814238    0.830100262766638    0.200802269202321  0.0000
  O1     O1        0.185837829045785    0.168691523866070    0.248598930136105  0.0000
  O1     O1        0.853512806256535    0.139594549821463    0.850787100506361  0.0000
  O1     O1        0.178675863149021    0.238452787860973    0.966491902867020  0.0000
  O1     O1        0.686333439638763    0.231212421919597    0.972929912022818  0.0000
  O1     O1        0.657058542893587    0.740912720002277    0.964687182646521  0.0000
  O1     O1        0.163655585980341    0.719241954027858    0.966635185197896  0.0000
  O3     O3        0.437736040994091    0.406806918815279    0.270792678594461  0.0000
  O1     O1        0.560070837508124    0.370045505035656    0.746233894633738  0.0000
  O3     O3        0.563634778507547    0.569962250557122    0.764531646775736  0.0000
  O1     O1        0.430743162317730    0.612141500241796    0.289731665776531  0.0000
  O1     O1        0.924474173767814    0.901499620426802    0.257039945716637  0.0000
  O1     O1        0.050429144916261    0.872614168845749    0.748343101568958  0.0000
  O1     O1        0.071984690563083    0.068793990530450    0.773710779122593  0.0000
  O1     O1        0.942840313119012    0.107892798479725    0.290095300374719  0.0000
  O3     O3        0.347161337821052    0.350834246550877    0.492368795114540  0.0000
  O1     O1        0.668669486988299    0.359687337464227    0.498209823616270  0.0000
  O3     O3        0.648314320470138    0.621212567740578    0.539401349624488  0.0000
  O1     O1        0.329519976258172    0.625833821148024    0.543366822464873  0.0000
  O1     O1        0.826519013722304    0.852624884805090    0.502142746552369  0.0000
  O1     O1        0.139958209389094    0.852572233538308    0.492182499230363  0.0000
  O1     O1        0.170807897584464    0.116962527319066    0.533938381316115  0.0000
  O1     O1        0.854112691807948    0.133246100731032    0.547138850750977  0.0000
  O3     O3        0.252590188959941    0.490637808537802    0.353886045451646  0.0000
  O3     O3        0.756947556224020    0.486953718866964    0.699835776232065  0.0000
  O1     O1        0.744162417257185    0.003912012939531    0.353003318551315  0.0000
  O1     O1        0.266710525443534    0.970361724094726    0.703026292541835  0.0000
  O1     O1        0.331560071202908    0.475034227664561    0.705165509259177  0.0000
  O1     O1        0.662096013502243    0.507000264285225    0.316894249574188  0.0000
  O1     O1        0.829905508797709    0.983703228303261    0.703166493757446  0.0000
  O1     O1        0.160592339644201    0.995967695460762    0.315010282304614  0.0000
