data_c00023.vasp
_audit_creation_method             Generated by GULP
_audit_author_name                 Salvador R. G. Balestra
_symmetry_space_group_name_H-M     'P 1             '
_symmetry_Int_Tables_number        1

loop_
_symmetry_equiv_pos_site_id
_symmetry_equiv_pos_as_xyz
_cell_length_a                       10.2237
_cell_length_b                       15.8730
_cell_length_c                        9.3206
_cell_angle_alpha                   89.6241
_cell_angle_beta                   105.2885
_cell_angle_gamma                   89.9990

loop_
_atom_site_label
_atom_site_type_symbol
_atom_site_fract_x
_atom_site_fract_y
_atom_site_fract_z
_atom_site_charge
  Si     Si        0.351599999999962    0.244500000000016    0.893900000000031  0.0000
  Si     Si        0.864034572587916    0.096833085744801    0.682345384107828  0.0000
  Ge     Ge        0.647499891315704    0.258389774972317    0.095419121513541  0.0000
  Ge     Ge        0.659510538920733    0.756132135283777    0.103185877874369  0.0000
  Ge     Ge        0.357673859206667    0.755624125445328    0.891165832020362  0.0000
  Ge     Ge        0.859915968647516    0.745404192562424    0.892328173900124  0.0000
  Ge     Ge        0.159903949847539    0.761890275476511    0.105577776765697  0.0000
  Ge     Ge        0.156493611794689    0.256642749608271    0.099672316136723  0.0000
  Ge     Ge        0.853076705424672    0.250457366021083    0.881770590373224  0.0000
  Ge     Ge        0.265634843605067    0.410025093074900    0.313511054983059  0.0000
  Ge     Ge        0.679130866366238    0.395142906981014    0.657623842921264  0.0000
  Ge     Ge        0.682112738247258    0.598627158980853    0.680975885525893  0.0000
  Ge     Ge        0.275004515804020    0.610506300630129    0.330713308202865  0.0000
  Ge     Ge        0.769949193340169    0.911550777133237    0.311914104072338  0.0000
  Ge     Ge        0.180261047213703    0.900243082418960    0.667837085296706  0.0000
  Ge     Ge        0.176200051484017    0.103374961093341    0.682994703782968  0.0000
  Ge     Ge        0.775138485950562    0.112387509368627    0.327897067716014  0.0000
  Ge     Ge        0.366210824033772    0.393324496964055    0.676344508179501  0.0000
  Ge     Ge        0.581818400570530    0.407806504645692    0.303224287236147  0.0000
  Ge     Ge        0.590237007464503    0.609818825812215    0.325262357409378  0.0000
  Ge     Ge        0.369067526659156    0.595258146062436    0.694995853147843  0.0000
  Ge     Ge        0.866441852285921    0.899703535614867    0.675018359896172  0.0000
  Ge     Ge        0.086650880473370    0.910604936064815    0.312022731225418  0.0000
  Ge     Ge        0.094244157945928    0.114200731629377    0.329716972309882  0.0000
  O3     O3        0.514654305341545    0.240301803328770    0.940053847274961  0.0000
  O1     O1        0.532643456770487    0.755863059320017    0.942233414606587  0.0000
  O1     O1        0.034317629068831    0.745615904734276    0.945846183712765  0.0000
  O1     O1        0.026937156382421    0.253450554678171    0.942382845241342  0.0000
  O3     O3        0.292984409167951    0.157633797107247    0.816709448427499  0.0000
  O1     O1        0.657854189472868    0.182803163227143    0.231127677801566  0.0000
  O1     O1        0.652743219675739    0.845626456200829    0.204580918384751  0.0000
  O1     O1        0.307480915955689    0.838548302854314    0.771443473231867  0.0000
  O1     O1        0.809546448818645    0.653815179956044    0.797775937117859  0.0000
  O1     O1        0.161256915193479    0.682925630060890    0.233520094762360  0.0000
  O1     O1        0.148423639365583    0.345519913813036    0.201851010242576  0.0000
  O1     O1        0.805658919543992    0.333595069421064    0.762735796872449  0.0000
  O3     O3        0.300929762700040    0.321583394175817    0.779131172911413  0.0000
  O1     O1        0.637831961383580    0.355172146134631    0.171167839425914  0.0000
  O1     O1        0.660422716092639    0.669255664360656    0.212861280061025  0.0000
  O1     O1        0.305103813751388    0.661238949834278    0.804002640736742  0.0000
  O1     O1        0.800009881120463    0.831120026655631    0.778336428149504  0.0000
  O1     O1        0.148208787735552    0.857478560448334    0.185376485005452  0.0000
  O1     O1        0.165043907471157    0.170952859131904    0.213902049871353  0.0000
  O3     O3        0.804811429695333    0.156232926961055    0.788256264991039  0.0000
  O3     O3        0.306371797418723    0.258655103522226    0.044137175316193  0.0000
  O1     O1        0.792322354128920    0.255369525746487    0.035149277294621  0.0000
  O1     O1        0.809851061591822    0.753121349460991    0.052751889311214  0.0000
  O1     O1        0.308737606599305    0.763367971631743    0.052120322026566  0.0000
  O1     O1        0.408367432536669    0.413705820598613    0.249558525220209  0.0000
  O1     O1        0.540225129665561    0.390932423224412    0.729373391738788  0.0000
  O1     O1        0.543641195866862    0.594586965080296    0.752399862476547  0.0000
  O1     O1        0.416134648754310    0.612330653691303    0.262942986512073  0.0000
  O1     O1        0.913315475053309    0.914288044222004    0.248522577519456  0.0000
  O1     O1        0.040124883013320    0.893786229541265    0.736804810279792  0.0000
  O3     O3        0.027326381759442    0.094516093913601    0.737003304680587  0.0000
  O1     O1        0.920117556412956    0.119419336548459    0.267923638311007  0.0000
  O1     O1        0.309961977248935    0.369562550709436    0.491609210975540  0.0000
  O1     O1        0.633238001887340    0.361230427307901    0.476414799083868  0.0000
  O1     O1        0.637656183910992    0.643833594139860    0.506416350228167  0.0000
  O1     O1        0.323278358275958    0.634009520668436    0.516008344008556  0.0000
  O1     O1        0.816160997960872    0.873209719143683    0.491077156981851  0.0000
  O1     O1        0.135111913655623    0.865949598689899    0.486567295733793  0.0000
  O1     O1        0.146250893803656    0.149524956572348    0.510775606620110  0.0000
  O3     O3        0.821054298545679    0.134524858959126    0.515963068028756  0.0000
  O1     O1        0.205546827007071    0.510877217970560    0.313498652572468  0.0000
  O1     O1        0.734641482242839    0.497294207923095    0.662873528447948  0.0000
  O1     O1        0.708804523394904    0.012564275221093    0.304997290438730  0.0000
  O1     O1        0.234812971908305    0.002881309372353    0.674256937729941  0.0000
  O1     O1        0.312492277034882    0.493804840486023    0.701736950147974  0.0000
  O1     O1        0.645512307065092    0.508114197197653    0.318661974967636  0.0000
  O3     O3        0.809840870598625    0.002244506048934    0.687162427811152  0.0000
  O1     O1        0.147003106046726    0.011898336108906    0.329164368634782  0.0000
