data_c00010.vasp
_audit_creation_method             Generated by GULP
_audit_author_name                 Salvador R. G. Balestra
_symmetry_space_group_name_H-M     'P 1             '
_symmetry_Int_Tables_number        1

loop_
_symmetry_equiv_pos_site_id
_symmetry_equiv_pos_as_xyz
_cell_length_a                       10.2528
_cell_length_b                       15.8730
_cell_length_c                        9.2909
_cell_angle_alpha                   89.1820
_cell_angle_beta                   105.7838
_cell_angle_gamma                   90.3771

loop_
_atom_site_label
_atom_site_type_symbol
_atom_site_fract_x
_atom_site_fract_y
_atom_site_fract_z
_atom_site_charge
  Si     Si        0.351599999999962    0.244500000000016    0.893900000000031  0.0000
  Si     Si        0.665443078327004    0.600571639668473    0.687549041072900  0.0000
  Ge     Ge        0.645166003085556    0.270637957737272    0.099367186939751  0.0000
  Ge     Ge        0.647202000086172    0.765384439047221    0.106802923454499  0.0000
  Ge     Ge        0.343072358924478    0.754128881036586    0.892428611948430  0.0000
  Ge     Ge        0.839803666204490    0.745132467583627    0.889951840880642  0.0000
  Ge     Ge        0.140462459847512    0.764045040309048    0.101384028445556  0.0000
  Ge     Ge        0.155616550380669    0.260885928456182    0.099462858904286  0.0000
  Ge     Ge        0.848206642871607    0.260569477922788    0.888228401016288  0.0000
  Ge     Ge        0.262490493385797    0.416424656446252    0.310929639302323  0.0000
  Ge     Ge        0.673479669148240    0.402248676214357    0.660888206470431  0.0000
  Ge     Ge        0.265599918151096    0.616976417745792    0.335845993419178  0.0000
  Ge     Ge        0.757968785113722    0.922723612678438    0.306583348256560  0.0000
  Ge     Ge        0.168294460041359    0.898775749992386    0.662364087274240  0.0000
  Ge     Ge        0.177160447279294    0.101604867285679    0.690422196187896  0.0000
  Ge     Ge        0.776124700048721    0.123055151101604    0.330218828260830  0.0000
  Ge     Ge        0.361873078905144    0.392865267336835    0.674611762831225  0.0000
  Ge     Ge        0.578507619371209    0.420366854691489    0.303407797345491  0.0000
  Ge     Ge        0.582771923840527    0.620468793336030    0.337722265093268  0.0000
  Ge     Ge        0.358656698381697    0.594837423429908    0.697875549429499  0.0000
  Ge     Ge        0.853433896617729    0.899908967492044    0.670136900970780  0.0000
  Ge     Ge        0.073760036288046    0.916201813449182    0.304088803888171  0.0000
  Ge     Ge        0.091976823521086    0.118015869772963    0.331043599216032  0.0000
  Ge     Ge        0.862660629560482    0.101548000269125    0.694074697237873  0.0000
  O3     O3        0.514592947679843    0.247361351503845    0.943101078543219  0.0000
  O1     O1        0.518014316984491    0.755725341974402    0.948386530969376  0.0000
  O1     O1        0.014157262170487    0.742267590466345    0.942928750586858  0.0000
  O1     O1        0.022681157771179    0.255952168676884    0.944000853464020  0.0000
  O3     O3        0.302741537330506    0.155797989992118    0.817838437780498  0.0000
  O1     O1        0.658942051098721    0.194665867587380    0.235606936123470  0.0000
  O1     O1        0.639703941757629    0.861216075868092    0.189024089104033  0.0000
  O1     O1        0.291484515974661    0.832326601754080    0.761490476034800  0.0000
  O3     O3        0.782334978308011    0.651444586452407    0.802572259372861  0.0000
  O1     O1        0.148926233423693    0.687369482649741    0.236026453516452  0.0000
  O1     O1        0.147987235379963    0.352544180402173    0.193724293463356  0.0000
  O1     O1        0.804941030079734    0.343429153798938    0.764083228834362  0.0000
  O3     O3        0.295238942207057    0.319608410900575    0.774335623925610  0.0000
  O1     O1        0.631449921246529    0.367717164188621    0.170438443206318  0.0000
  O1     O1        0.655738719196288    0.689286972948084    0.241736460206986  0.0000
  O1     O1        0.299302255778172    0.656065380255581    0.815460866148085  0.0000
  O1     O1        0.785327762168397    0.829001169152250    0.769760940726866  0.0000
  O1     O1        0.124880763797686    0.861185565311651    0.172607699833690  0.0000
  O1     O1        0.166860010183657    0.178550800164904    0.223042023659951  0.0000
  O1     O1        0.795898124665185    0.166087097333674    0.801537423807380  0.0000
  O3     O3        0.303789992884440    0.258489059226376    0.042529492598298  0.0000
  O1     O1        0.791298505984654    0.272337748916481    0.042438558545439  0.0000
  O1     O1        0.794671629562220    0.757526452900863    0.052396853274063  0.0000
  O1     O1        0.288952709436519    0.766866074719999    0.048289324045615  0.0000
  O1     O1        0.405238696306585    0.425107425909179    0.249159164780349  0.0000
  O1     O1        0.536135111097332    0.388825554188659    0.731257903454195  0.0000
  O3     O3        0.534931994379097    0.592407825381277    0.751060434009703  0.0000
  O1     O1        0.408876818250067    0.623157339192280    0.273074349872827  0.0000
  O1     O1        0.901272145038206    0.926499023817128    0.244435535748970  0.0000
  O1     O1        0.027911717205815    0.894280836484327    0.730070826483292  0.0000
  O1     O1        0.036894032336449    0.096494015753127    0.756798247333391  0.0000
  O1     O1        0.917993259589533    0.125823558991241    0.264592295589087  0.0000
  O1     O1        0.308057136435007    0.371987621894481    0.487730549949140  0.0000
  O1     O1        0.632267610408495    0.372630445325867    0.476869454003025  0.0000
  O3     O3        0.623553747260390    0.646380795438628    0.525853460492951  0.0000
  O1     O1        0.305139072890329    0.639143965425633    0.522449299887989  0.0000
  O1     O1        0.801702263616579    0.878356959320644    0.483233121979635  0.0000
  O1     O1        0.121780754828536    0.868957074471263    0.477964196767852  0.0000
  O1     O1        0.139895085928790    0.147768966487055    0.515756680053332  0.0000
  O1     O1        0.825791022607384    0.144691893194718    0.516893078688800  0.0000
  O1     O1        0.200632471617074    0.515963345537023    0.315847041630430  0.0000
  O3     O3        0.718559609449980    0.507745009625728    0.666083308398593  0.0000
  O1     O1        0.703625184683470    0.024034203677160    0.311107119616474  0.0000
  O1     O1        0.229585601784331    0.000260670947093    0.675705034949068  0.0000
  O1     O1        0.306361615672157    0.492292433951261    0.701290634218081  0.0000
  O1     O1        0.639560109039818    0.521594472144427    0.314859342155666  0.0000
  O1     O1        0.801501068454637    0.000803149391977    0.693831186257126  0.0000
  O1     O1        0.141928316306340    0.015848058468998    0.321194970398667  0.0000
