data_c00021.vasp
_audit_creation_method             Generated by GULP
_audit_author_name                 Salvador R. G. Balestra
_symmetry_space_group_name_H-M     'P 1             '
_symmetry_Int_Tables_number        1

loop_
_symmetry_equiv_pos_site_id
_symmetry_equiv_pos_as_xyz
_cell_length_a                       10.2602
_cell_length_b                       15.8778
_cell_length_c                        9.2727
_cell_angle_alpha                   89.4026
_cell_angle_beta                   105.3758
_cell_angle_gamma                   89.9760

loop_
_atom_site_label
_atom_site_type_symbol
_atom_site_fract_x
_atom_site_fract_y
_atom_site_fract_z
_atom_site_charge
  Si     Si        0.351599999999962    0.244500000000016    0.893900000000031  0.0000
  Si     Si        0.076137130577042    0.916891077924495    0.309553432104819  0.0000
  Ge     Ge        0.643669438718466    0.267931235314323    0.098589493297773  0.0000
  Ge     Ge        0.647650367173241    0.764796931867203    0.102760386509152  0.0000
  Ge     Ge        0.343462025439528    0.757119096764401    0.894202643973624  0.0000
  Ge     Ge        0.851882046886606    0.747102344944462    0.896251603596055  0.0000
  Ge     Ge        0.149009309618920    0.768664732966837    0.113486256044786  0.0000
  Ge     Ge        0.155936111889825    0.259002768477977    0.101311022931455  0.0000
  Ge     Ge        0.849427192544981    0.257946097395610    0.889403373728513  0.0000
  Ge     Ge        0.259922587769337    0.415581681856386    0.313254435476198  0.0000
  Ge     Ge        0.673739788736605    0.398612562248251    0.658523735202845  0.0000
  Ge     Ge        0.673580895796603    0.601447797623301    0.688963305496135  0.0000
  Ge     Ge        0.266284758601961    0.615587134498224    0.338380650893974  0.0000
  Ge     Ge        0.766506866909431    0.919110809574343    0.309071072559468  0.0000
  Ge     Ge        0.170914895224636    0.900424789440813    0.660575829810573  0.0000
  Ge     Ge        0.179405866549717    0.101397344064441    0.688380690328099  0.0000
  Ge     Ge        0.777393819385460    0.121347342124939    0.329131094812030  0.0000
  Ge     Ge        0.362601338769511    0.394521972541141    0.678460462980211  0.0000
  Ge     Ge        0.574119417295697    0.417572872557373    0.302895077812228  0.0000
  Ge     Ge        0.580143163442322    0.618987196353269    0.332040109071869  0.0000
  Ge     Ge        0.362161660334727    0.595845163124302    0.705431151594289  0.0000
  Ge     Ge        0.856309175846436    0.898988198838085    0.669510956532184  0.0000
  Ge     Ge        0.091394861187652    0.115663483905222    0.328440948918011  0.0000
  Ge     Ge        0.863613284843862    0.100250964926220    0.691798432387135  0.0000
  O3     O3        0.514212638309402    0.245510812336318    0.941821806849732  0.0000
  O1     O1        0.518081031914167    0.760968240759257    0.944620792875916  0.0000
  O1     O1        0.025521870602278    0.749999833957977    0.952553278082341  0.0000
  O1     O1        0.023623340655889    0.256493794440392    0.946072508400419  0.0000
  O3     O3        0.301752488521692    0.156826457102237    0.815335354478350  0.0000
  O1     O1        0.657448231111166    0.190957055364838    0.232857894926089  0.0000
  O1     O1        0.647359576431473    0.859714397381152    0.191226269991931  0.0000
  O1     O1        0.290317652722802    0.831092345425356    0.755410744183404  0.0000
  O1     O1        0.803045518909489    0.653584047897128    0.808044080794212  0.0000
  O1     O1        0.153711511167428    0.689434199168602    0.241822740103096  0.0000
  O1     O1        0.147428835282986    0.348800537451976    0.201237569194180  0.0000
  O1     O1        0.802806959830524    0.337261637567858    0.759421448738236  0.0000
  O3     O3        0.296494633262975    0.320802376383553    0.777306178724185  0.0000
  O1     O1        0.627488372141038    0.365075651149533    0.169065894644034  0.0000
  O1     O1        0.649064240006396    0.683235924207653    0.224964467196618  0.0000
  O1     O1        0.299087154684798    0.658606943184138    0.820221476164686  0.0000
  O1     O1        0.791817890453664    0.829113401142016    0.773095904588841  0.0000
  O3     O3        0.131403278867274    0.865041444481035    0.191103878501493  0.0000
  O1     O1        0.167364899756061    0.173084785216988    0.218063681400102  0.0000
  O1     O1        0.799716802889522    0.162520634723864    0.805910618485976  0.0000
  O3     O3        0.304030297716786    0.257950708822830    0.043695719191041  0.0000
  O1     O1        0.790303873848934    0.271277792690272    0.042399121557872  0.0000
  O1     O1        0.797724926919388    0.757064129330499    0.053900897314842  0.0000
  O1     O1        0.294567168483267    0.773910351677749    0.053910585876154  0.0000
  O1     O1        0.401211399867465    0.423613724333814    0.248473257183717  0.0000
  O1     O1        0.536317699854522    0.391901225302221    0.731957129145346  0.0000
  O1     O1        0.536299810045223    0.596126691907928    0.761799606675176  0.0000
  O1     O1        0.406457937137310    0.620631781010068    0.269805282674780  0.0000
  O3     O3        0.914381153945145    0.923338085265471    0.251461972238701  0.0000
  O1     O1        0.030436112798748    0.895738145310261    0.727749387235184  0.0000
  O1     O1        0.037474870727500    0.095714162800003    0.751795049718854  0.0000
  O1     O1        0.919248191107170    0.127945177035703    0.262997400915689  0.0000
  O1     O1        0.306836015830298    0.373887946723262    0.491608268525813  0.0000
  O1     O1        0.625974891314459    0.368016761087183    0.474594779730311  0.0000
  O1     O1        0.626459337084043    0.649510311977440    0.515743372364640  0.0000
  O1     O1        0.313077371662883    0.635885247260026    0.525806712116236  0.0000
  O1     O1        0.802603038140218    0.873999919696559    0.483993813907955  0.0000
  O3     O3        0.119912202618626    0.873236897561719    0.472692773338158  0.0000
  O1     O1        0.143255873432871    0.145904902849903    0.512467996572843  0.0000
  O1     O1        0.824199837692019    0.144531390602110    0.515389828862315  0.0000
  O1     O1        0.197403668033734    0.515829915456059    0.315341536501568  0.0000
  O1     O1        0.726269170762038    0.501233278032477    0.664899127072587  0.0000
  O1     O1        0.712522534901296    0.020906894546794    0.311306289571336  0.0000
  O1     O1        0.236317100043934    0.000224189192317    0.679857989036539  0.0000
  O1     O1        0.308077167079480    0.493798664539447    0.709041138467418  0.0000
  O1     O1        0.636617010721963    0.518068182637029    0.318995799218224  0.0000
  O1     O1        0.801941276293082    0.000003216859489    0.688764823159506  0.0000
  O3     O3        0.136462553685012    0.010697533574166    0.323836642468014  0.0000
