data_c00015.vasp
_audit_creation_method             Generated by GULP
_audit_author_name                 Salvador R. G. Balestra
_symmetry_space_group_name_H-M     'P 1             '
_symmetry_Int_Tables_number        1

loop_
_symmetry_equiv_pos_site_id
_symmetry_equiv_pos_as_xyz
_cell_length_a                       10.2515
_cell_length_b                       15.8609
_cell_length_c                        9.2990
_cell_angle_alpha                   90.5128
_cell_angle_beta                   105.8563
_cell_angle_gamma                   90.2158

loop_
_atom_site_label
_atom_site_type_symbol
_atom_site_fract_x
_atom_site_fract_y
_atom_site_fract_z
_atom_site_charge
  Si     Si        0.351599999999962    0.244500000000016    0.893900000000031  0.0000
  Si     Si        0.821987414105601    0.084310652194765    0.302152760654498  0.0000
  Ge     Ge        0.647667464199803    0.227631931742747    0.096941860902496  0.0000
  Ge     Ge        0.630734600042901    0.744102218771334    0.103881085546374  0.0000
  Ge     Ge        0.327261296242781    0.741813961615376    0.890546152144859  0.0000
  Ge     Ge        0.828745257466516    0.753621218033544    0.891012582695148  0.0000
  Ge     Ge        0.128418447080904    0.725289875638331    0.101610592401102  0.0000
  Ge     Ge        0.152445493812643    0.234314619768920    0.097644214815352  0.0000
  Ge     Ge        0.844579886806470    0.247119653971656    0.882195726377127  0.0000
  Ge     Ge        0.319699809520984    0.376176902250805    0.335801229529960  0.0000
  Ge     Ge        0.733768947440251    0.404019981756040    0.683686621081033  0.0000
  Ge     Ge        0.709413456425144    0.603389834019710    0.661350663814453  0.0000
  Ge     Ge        0.306937349803076    0.579533523295714    0.309256140435148  0.0000
  Ge     Ge        0.813254095891072    0.885248584393791    0.330515193599691  0.0000
  Ge     Ge        0.220525602558697    0.900957338944594    0.688344512707951  0.0000
  Ge     Ge        0.219153986459051    0.102131935493515    0.663735295061230  0.0000
  Ge     Ge        0.417083077997420    0.392574661844644    0.692581595219790  0.0000
  Ge     Ge        0.633985073095686    0.380888469341061    0.321083335487632  0.0000
  Ge     Ge        0.618241500770236    0.583071514783162    0.296498475562502  0.0000
  Ge     Ge        0.396646129065758    0.594111812707881    0.668853423289547  0.0000
  Ge     Ge        0.904308701327651    0.902673003750970    0.688756218196219  0.0000
  Ge     Ge        0.125574225953780    0.878173035957850    0.324082600025505  0.0000
  Ge     Ge        0.131601307945900    0.080421141966273    0.301790068166247  0.0000
  Ge     Ge        0.899493918059560    0.103099277887912    0.651029159981167  0.0000
  O3     O3        0.471354320534012    0.222214523392059    0.039890024194382  0.0000
  O1     O1        0.456115995033481    0.740052983419477    0.051867990424275  0.0000
  O1     O1        0.954335785811004    0.729755116263344    0.048479179239974  0.0000
  O1     O1        0.978114961750178    0.233728995250337    0.034481061217310  0.0000
  O3     O3        0.337326099772901    0.173506361083694    0.765801282304543  0.0000
  O3     O3        0.705043694551466    0.134285860218500    0.185667528159382  0.0000
  O1     O1        0.680379124614646    0.826602946684573    0.227449824227474  0.0000
  O1     O1        0.335610615073505    0.834603736790319    0.798247726116471  0.0000
  O1     O1        0.821333489133517    0.678513431977482    0.754580834330058  0.0000
  O1     O1        0.176875770240385    0.631152990007621    0.188052980179780  0.0000
  O1     O1        0.195122937235734    0.312789523322581    0.228885667811948  0.0000
  O1     O1        0.852999231796929    0.343936440547467    0.802428297525095  0.0000
  O3     O3        0.374286045214004    0.335204475687678    0.830186644663595  0.0000
  O1     O1        0.699312091045783    0.311190415925636    0.218122324189808  0.0000
  O1     O1        0.683815358252841    0.649390504536817    0.189679553183017  0.0000
  O1     O1        0.324229927399257    0.656791714016212    0.774982541569340  0.0000
  O1     O1        0.847208735002805    0.850696555648327    0.819901289271144  0.0000
  O1     O1        0.192216744815241    0.806284448369537    0.226969177079046  0.0000
  O1     O1        0.195259195534985    0.138574399579646    0.182442962266602  0.0000
  O1     O1        0.825724352221952    0.172177145897624    0.744079133927165  0.0000
  O3     O3        0.213239048768862    0.247789922823540    0.944473953490361  0.0000
  O1     O1        0.698567504444790    0.241156813538531    0.939493257498075  0.0000
  O1     O1        0.680723871575903    0.755633768351908    0.944583168027550  0.0000
  O1     O1        0.177952013720957    0.737450986564745    0.941553743659994  0.0000
  O1     O1        0.459893513730284    0.372369012227868    0.268606115644690  0.0000
  O1     O1        0.588888750407532    0.406700133146701    0.743065056515564  0.0000
  O1     O1        0.570745478326212    0.601951149809644    0.732093045096510  0.0000
  O1     O1        0.443785128794808    0.578126790045358    0.236188993053507  0.0000
  O1     O1        0.950789980404933    0.872316885752666    0.261294230730809  0.0000
  O1     O1        0.077826839471007    0.907596998841725    0.750760822291087  0.0000
  O1     O1        0.073500835215820    0.106384159480917    0.720617396932335  0.0000
  O3     O3        0.955200003410100    0.078760678508647    0.243110431732851  0.0000
  O1     O1        0.363896411329475    0.344945898519319    0.519920633566307  0.0000
  O1     O1        0.693140534792484    0.359558589879981    0.507541969880344  0.0000
  O1     O1        0.656166935365689    0.624550623590524    0.474722515897007  0.0000
  O1     O1        0.347850355169108    0.624740751324778    0.484763503809313  0.0000
  O1     O1        0.853538349790417    0.855586148453108    0.514699329897483  0.0000
  O1     O1        0.171563345482995    0.857743800577377    0.511281295779500  0.0000
  O1     O1        0.184356838966910    0.124785333114048    0.477371279721065  0.0000
  O3     O3        0.861742196640116    0.129976141816670    0.463725818193441  0.0000
  O1     O1        0.260277622232098    0.477166425220243    0.329701250729225  0.0000
  O1     O1        0.786922622409095    0.506171764981082    0.679929653126047  0.0000
  O3     O3        0.769428793709623    0.990885607439689    0.322936121492570  0.0000
  O1     O1        0.283392468621549    0.001260477771131    0.686496220156018  0.0000
  O1     O1        0.347229895692753    0.491390074810799    0.683405369404011  0.0000
  O1     O1        0.680381805291040    0.483041831993250    0.294051083591087  0.0000
  O1     O1        0.842893520095783    0.003754901275356    0.672910342716358  0.0000
  O1     O1        0.183054078914847    0.978121791965528    0.301578890713831  0.0000
