data_c00029.vasp
_audit_creation_method             Generated by GULP
_audit_author_name                 Salvador R. G. Balestra
_symmetry_space_group_name_H-M     'P 1             '
_symmetry_Int_Tables_number        1

loop_
_symmetry_equiv_pos_site_id
_symmetry_equiv_pos_as_xyz
_cell_length_a                       10.3019
_cell_length_b                       15.8522
_cell_length_c                        9.2962
_cell_angle_alpha                   89.5001
_cell_angle_beta                   105.6637
_cell_angle_gamma                   89.9702

loop_
_atom_site_label
_atom_site_type_symbol
_atom_site_fract_x
_atom_site_fract_y
_atom_site_fract_z
_atom_site_charge
  Si     Si        0.306699999999978    0.397900000000050    0.331699999999955  0.0000
  Si     Si        0.212504154458214    0.076492421967900    0.702685126200118  0.0000
  Ge     Ge        0.319254937882687    0.230370927330955    0.904816779815795  0.0000
  Ge     Ge        0.625270761830758    0.239778557922183    0.119878087836102  0.0000
  Ge     Ge        0.620863117571818    0.754390250162631    0.123620468512209  0.0000
  Ge     Ge        0.321546033169087    0.731199404231125    0.914119379512679  0.0000
  Ge     Ge        0.819809416702150    0.735818747285881    0.913373004802026  0.0000
  Ge     Ge        0.122552302024848    0.737476617435566    0.126389690983920  0.0000
  Ge     Ge        0.132703518351519    0.254644742610325    0.129044775134168  0.0000
  Ge     Ge        0.836074614771861    0.233717977183598    0.919994773482339  0.0000
  Ge     Ge        0.704311314884779    0.377578477228887    0.680234178072891  0.0000
  Ge     Ge        0.708275478755341    0.579118545860446    0.707872603760965  0.0000
  Ge     Ge        0.303158479491590    0.596826358884412    0.354343170965871  0.0000
  Ge     Ge        0.800004805575178    0.899638739470730    0.331967490379561  0.0000
  Ge     Ge        0.200594084614783    0.881027286027071    0.686376089826822  0.0000
  Ge     Ge        0.807144520128212    0.103844723837837    0.361661694214865  0.0000
  Ge     Ge        0.388342079008696    0.377955500319904    0.680686719473473  0.0000
  Ge     Ge        0.612517423179425    0.398979431818077    0.319519748121129  0.0000
  Ge     Ge        0.613214712349567    0.601144091759881    0.344251887045751  0.0000
  Ge     Ge        0.394778796730527    0.579515238218396    0.712309589389614  0.0000
  Ge     Ge        0.888785159606582    0.881898277962042    0.689448343505697  0.0000
  Ge     Ge        0.110959623469029    0.898398727567218    0.321135863128999  0.0000
  Ge     Ge        0.119706612081115    0.099843219477687    0.347592026703579  0.0000
  Ge     Ge        0.905492957549661    0.083486056906297    0.715084323291564  0.0000
  O1     O1        0.452166682476096    0.232497948275939    0.060325146975854  0.0000
  O1     O1        0.447721795172889    0.752125279908141    0.071580436636353  0.0000
  O1     O1        0.948736519224820    0.738655680817361    0.073287383049530  0.0000
  O1     O1        0.959480317678739    0.260024347008428    0.077179927908979  0.0000
  O3     O3        0.320127530304969    0.135534516189541    0.812172356565420  0.0000
  O1     O1        0.680451773561684    0.165979828133458    0.258133400880772  0.0000
  O1     O1        0.671372038606699    0.848508507899788    0.209208283767697  0.0000
  O1     O1        0.316491899437892    0.809830361189922    0.783514536002040  0.0000
  O1     O1        0.825751374542364    0.643150539996297    0.819712413511569  0.0000
  O1     O1        0.171944654010307    0.655490881497139    0.250998018966886  0.0000
  O3     O3        0.190625689156503    0.348636063633784    0.214059369855806  0.0000
  O1     O1        0.821462977694047    0.307937041755817    0.781068721403478  0.0000
  O1     O1        0.316566450447015    0.310734402924925    0.780099018708461  0.0000
  O1     O1        0.664624688915701    0.339016535228135    0.194290194456483  0.0000
  O1     O1        0.681313308842152    0.672654595352122    0.247781235812849  0.0000
  O1     O1        0.337806205706531    0.634606654241328    0.840000872406233  0.0000
  O1     O1        0.815829673024937    0.819909827127530    0.795647744656987  0.0000
  O1     O1        0.174741276949421    0.832208373159924    0.212818255440551  0.0000
  O1     O1        0.187640920518275    0.172014135578285    0.251869770662675  0.0000
  O1     O1        0.868094421082294    0.136465776338472    0.857342129847620  0.0000
  O1     O1        0.176493994468950    0.239858369172298    0.965839169017489  0.0000
  O1     O1        0.686852039561709    0.226085688594938    0.969159416232526  0.0000
  O1     O1        0.671246344388039    0.740900433061940    0.964497525905314  0.0000
  O1     O1        0.174363267260564    0.727153091349152    0.968177317893366  0.0000
  O3     O3        0.437537998129328    0.403194658484319    0.269505348799506  0.0000
  O1     O1        0.561338005069071    0.372261321179301    0.742385876195864  0.0000
  O1     O1        0.567279557194368    0.573447007526799    0.772612210060797  0.0000
  O1     O1        0.439393585341256    0.607785572667688    0.283177124656388  0.0000
  O1     O1        0.937636430910747    0.901762164914352    0.261201488106141  0.0000
  O1     O1        0.061718796616979    0.874484142990754    0.754581953601220  0.0000
  O3     O3        0.078242198369505    0.069372485181152    0.758621233098750  0.0000
  O1     O1        0.946657479032593    0.109838861811928    0.293436119152792  0.0000
  O3     O3        0.344812371012038    0.351623487023247    0.492617076241477  0.0000
  O1     O1        0.667550124008176    0.354107045852990    0.494065158625067  0.0000
  O1     O1        0.659701429736343    0.622446158743913    0.531122786685225  0.0000
  O1     O1        0.344934210001012    0.626543502317041    0.538496515224968  0.0000
  O1     O1        0.841491927293095    0.851851166319531    0.505294169405039  0.0000
  O1     O1        0.153998525039714    0.858321485670412    0.500215527370524  0.0000
  O3     O3        0.172568185464290    0.117596244494785    0.537573257301801  0.0000
  O1     O1        0.848616666019492    0.134386829464179    0.546025815860006  0.0000
  O3     O3        0.256427012191266    0.491651241343135    0.352504392223358  0.0000
  O1     O1        0.767788529835024    0.478709803061756    0.701519273159855  0.0000
  O1     O1        0.752770121987681    0.001400849176277    0.354297146722027  0.0000
  O3     O3        0.269028698323737    0.982240338341373    0.700764192764095  0.0000
  O1     O1        0.334673178610012    0.478009235056679    0.702815316797945  0.0000
  O1     O1        0.667389104061258    0.500760625095358    0.318941501510591  0.0000
  O1     O1        0.838029916967805    0.984218386599785    0.702233176351773  0.0000
  O1     O1        0.167829118470517    0.999701153935875    0.314056240799870  0.0000
