data_c00037.vasp
_audit_creation_method             Generated by GULP
_audit_author_name                 Salvador R. G. Balestra
_symmetry_space_group_name_H-M     'P 1             '
_symmetry_Int_Tables_number        1

loop_
_symmetry_equiv_pos_site_id
_symmetry_equiv_pos_as_xyz
_cell_length_a                       10.2871
_cell_length_b                       15.8698
_cell_length_c                        9.3070
_cell_angle_alpha                   90.4859
_cell_angle_beta                   105.5022
_cell_angle_gamma                   90.6175

loop_
_atom_site_label
_atom_site_type_symbol
_atom_site_fract_x
_atom_site_fract_y
_atom_site_fract_z
_atom_site_charge
  Si     Si        0.306699999999978    0.397900000000050    0.331699999999955  0.0000
  Si     Si        0.108105408189005    0.098101202833561    0.298561260172796  0.0000
  Ge     Ge        0.321182882149430    0.263250473681646    0.888022340680473  0.0000
  Ge     Ge        0.623857824911553    0.246456067423798    0.096120333604702  0.0000
  Ge     Ge        0.618984176648016    0.759343264820484    0.099615684464490  0.0000
  Ge     Ge        0.316406332110302    0.760027421180030    0.885743297254770  0.0000
  Ge     Ge        0.819626983670523    0.767515129547475    0.889146299987227  0.0000
  Ge     Ge        0.117562667619392    0.743991143701108    0.097776082341392  0.0000
  Ge     Ge        0.128113061963844    0.256190202204501    0.110377976504985  0.0000
  Ge     Ge        0.829367424343107    0.265547215319242    0.893421794133902  0.0000
  Ge     Ge        0.708598940092543    0.417301061847819    0.683015849443363  0.0000
  Ge     Ge        0.694896401415987    0.618608953396012    0.658271505471934  0.0000
  Ge     Ge        0.294850566271146    0.597121710912933    0.302369033866424  0.0000
  Ge     Ge        0.799538865027197    0.899285841604178    0.331410129490223  0.0000
  Ge     Ge        0.211130553800647    0.916114268381691    0.677992880606957  0.0000
  Ge     Ge        0.206176228782339    0.114809325532144    0.655365473332521  0.0000
  Ge     Ge        0.802767615103282    0.103563608510137    0.310942756585298  0.0000
  Ge     Ge        0.392055393430774    0.413173062198589    0.681949155694987  0.0000
  Ge     Ge        0.613110067680800    0.398305975641924    0.322299569426214  0.0000
  Ge     Ge        0.605225369877842    0.600141964012569    0.294341838271406  0.0000
  Ge     Ge        0.381388798564271    0.614514605172235    0.660496058108162  0.0000
  Ge     Ge        0.896991008049882    0.916472045446077    0.686548340687106  0.0000
  Ge     Ge        0.108863655789952    0.899701044960917    0.313571521446139  0.0000
  Ge     Ge        0.892666546659092    0.118555720120724    0.664925206134911  0.0000
  O1     O1        0.450576065720385    0.244618230798135    0.042635806408778  0.0000
  O1     O1        0.444984768652965    0.758272132721461    0.045105812223176  0.0000
  O1     O1        0.944210477535485    0.743866681127958    0.045679036170349  0.0000
  O1     O1        0.955625017599999    0.266791771758689    0.055864222245311  0.0000
  O1     O1        0.318343320483598    0.188609471486257    0.751383005592589  0.0000
  O1     O1        0.679310004268713    0.153823835346007    0.182993806072273  0.0000
  O1     O1        0.668851899531545    0.839321498710535    0.227700475487065  0.0000
  O1     O1        0.325367030475322    0.850897642407831    0.788465548973039  0.0000
  O1     O1        0.809705575315512    0.691595240632001    0.753578977659493  0.0000
  O1     O1        0.166058899276528    0.650387196584095    0.186041393579117  0.0000
  O3     O3        0.191897404641775    0.336290794140860    0.235640339742947  0.0000
  O1     O1        0.830215359673655    0.356983064242284    0.795516480102611  0.0000
  O1     O1        0.331266378035287    0.359030794302562    0.808131664261429  0.0000
  O1     O1        0.677317920316953    0.329627893524200    0.218976835153400  0.0000
  O1     O1        0.670228421417355    0.664264784770165    0.183433965826332  0.0000
  O1     O1        0.309534699425877    0.675844816234233    0.767732835774821  0.0000
  O1     O1        0.842737592739746    0.864344041109931    0.819901385553692  0.0000
  O1     O1        0.176090540243218    0.829688084322977    0.214327018815790  0.0000
  O3     O3        0.167471725465436    0.158771002703329    0.193904255858437  0.0000
  O1     O1        0.831082630665720    0.179692284993358    0.781769606440741  0.0000
  O1     O1        0.177407616007953    0.261205563776790    0.949419409504088  0.0000
  O1     O1        0.678117909971043    0.260038600864319    0.940072030890530  0.0000
  O1     O1        0.671728598558786    0.771414775972645    0.942170559824926  0.0000
  O1     O1        0.168182753323426    0.755284553994599    0.938256833383386  0.0000
  O3     O3        0.437408228216728    0.395168708034087    0.267621315393745  0.0000
  O1     O1        0.564704390282537    0.418021776467917    0.743825567264923  0.0000
  O1     O1        0.554433977940188    0.620375852607921    0.725678263871585  0.0000
  O1     O1        0.431621424908063    0.599294092524637    0.230728291590951  0.0000
  O1     O1        0.935790695049478    0.890681282165366    0.257852140346802  0.0000
  O1     O1        0.069848715707236    0.922183823072157    0.742239289866192  0.0000
  O1     O1        0.065838528190319    0.120006118206828    0.721674025031069  0.0000
  O3     O3        0.945689741547628    0.098473253290776    0.245775496676429  0.0000
  O3     O3        0.348320458914442    0.369157068056702    0.503334103222729  0.0000
  O1     O1        0.668922910686022    0.373928507944569    0.506339382121220  0.0000
  O1     O1        0.646069993056504    0.641367918014937    0.472480874242494  0.0000
  O1     O1        0.334179169487510    0.643458183707579    0.476419558721835  0.0000
  O1     O1        0.845171923550941    0.867695526933697    0.514343598903080  0.0000
  O1     O1        0.163694411285567    0.876611796926172    0.498875220763010  0.0000
  O3     O3        0.154583032168322    0.134388565768405    0.466605963652355  0.0000
  O1     O1        0.839062222162109    0.151959273592032    0.482881818670219  0.0000
  O3     O3        0.251082383102314    0.492624758666601    0.322006792067809  0.0000
  O1     O1        0.763312740094069    0.519424724783410    0.678644171338160  0.0000
  O1     O1        0.750676455294918    0.002311848102621    0.328817867162359  0.0000
  O1     O1        0.275798600596403    0.016494469747414    0.679920220546335  0.0000
  O1     O1        0.328805588052340    0.512529848973478    0.672993403178807  0.0000
  O1     O1        0.663615422298583    0.499539191901250    0.295615762238999  0.0000
  O1     O1        0.835571554853710    0.016930990595452    0.671445260362961  0.0000
  O3     O3        0.158390907089720    0.003134693880287    0.290714374637135  0.0000
