data_c00017.vasp
_audit_creation_method             Generated by GULP
_audit_author_name                 Salvador R. G. Balestra
_symmetry_space_group_name_H-M     'P 1             '
_symmetry_Int_Tables_number        1

loop_
_symmetry_equiv_pos_site_id
_symmetry_equiv_pos_as_xyz
_cell_length_a                       10.2401
_cell_length_b                       15.8767
_cell_length_c                        9.3285
_cell_angle_alpha                   89.7336
_cell_angle_beta                   105.2456
_cell_angle_gamma                   89.7705

loop_
_atom_site_label
_atom_site_type_symbol
_atom_site_fract_x
_atom_site_fract_y
_atom_site_fract_z
_atom_site_charge
  Si     Si        0.351599999999962    0.244500000000016    0.893900000000031  0.0000
  Si     Si        0.638445401093404    0.400956159977968    0.312161109380209  0.0000
  Ge     Ge        0.645616123066194    0.247315879031296    0.106680882598509  0.0000
  Ge     Ge        0.649588684406168    0.753613062153309    0.107314261799810  0.0000
  Ge     Ge        0.349477203975492    0.740291762400867    0.897644356654187  0.0000
  Ge     Ge        0.848518117999258    0.744365087407615    0.895097248275342  0.0000
  Ge     Ge        0.149501898262074    0.743293698944012    0.110120674488380  0.0000
  Ge     Ge        0.158002383111213    0.255135570731721    0.101727144480454  0.0000
  Ge     Ge        0.851905014972849    0.241839747310532    0.895856982352301  0.0000
  Ge     Ge        0.329311233691814    0.397856983319342    0.324380299712272  0.0000
  Ge     Ge        0.736048388097513    0.389697468830464    0.665593722081450  0.0000
  Ge     Ge        0.738269261256533    0.589603198945605    0.683710713084740  0.0000
  Ge     Ge        0.328445073976658    0.601479366040955    0.336309375109373  0.0000
  Ge     Ge        0.827056402753521    0.900105690396206    0.319839803676014  0.0000
  Ge     Ge        0.233401317124491    0.893524881199099    0.676401376635035  0.0000
  Ge     Ge        0.234473132643588    0.094786461780262    0.686860826683204  0.0000
  Ge     Ge        0.827284062242127    0.104383029975188    0.332396064842087  0.0000
  Ge     Ge        0.419412613642632    0.387137033271111    0.676522712701631  0.0000
  Ge     Ge        0.639104018102187    0.598781770620390    0.320499297901294  0.0000
  Ge     Ge        0.423421054901244    0.589979776475660    0.691334194431700  0.0000
  Ge     Ge        0.916849085221952    0.891151325971612    0.674836034612129  0.0000
  Ge     Ge        0.141289383307464    0.901906260376031    0.312092007260457  0.0000
  Ge     Ge        0.142311020891955    0.104072602367552    0.323067069794733  0.0000
  Ge     Ge        0.917607036119472    0.093604451062995    0.686962007947219  0.0000
  O3     O3        0.470469020888679    0.240590232317302    0.045017811110264  0.0000
  O1     O1        0.475581117578759    0.754857499673270    0.056822237812688  0.0000
  O1     O1        0.975013831531212    0.742735136923977    0.056283326145778  0.0000
  O1     O1        0.984300589437528    0.256666016627194    0.048456360663508  0.0000
  O3     O3        0.352999303534846    0.162331722053625    0.793591061170466  0.0000
  O1     O1        0.699363098534577    0.164071737777025    0.223643722358763  0.0000
  O1     O1        0.700965804679171    0.844181100076169    0.203927220189227  0.0000
  O1     O1        0.347896681995739    0.822019425107089    0.775215463028698  0.0000
  O1     O1        0.854619313454159    0.656453033850300    0.789518669226638  0.0000
  O1     O1        0.198856833267836    0.660270004811478    0.230077513396632  0.0000
  O1     O1        0.207885648397199    0.346697742511072    0.195188307926422  0.0000
  O1     O1        0.850051918047353    0.318132762533224    0.763049199406550  0.0000
  O3     O3        0.359203396402611    0.327768301510107    0.799508388488107  0.0000
  O3     O3        0.691885322102437    0.340803710320785    0.202520438962472  0.0000
  O1     O1        0.707117784135310    0.666116393663285    0.217342077828658  0.0000
  O1     O1        0.362785802308853    0.645374308988026    0.816324548766258  0.0000
  O1     O1        0.848273959224182    0.832825364829086    0.789589295048870  0.0000
  O1     O1        0.204403271479443    0.835754159270013    0.202510898478969  0.0000
  O1     O1        0.211434622459943    0.171005036491007    0.219418949805997  0.0000
  O1     O1        0.857077950978508    0.145483292518268    0.816000898646030  0.0000
  O3     O3        0.210997824971963    0.246655665005908    0.941130273713872  0.0000
  O1     O1        0.705767415280470    0.246345783255816    0.953272750574748  0.0000
  O1     O1        0.698733843927478    0.746927653598774    0.946262128236296  0.0000
  O1     O1        0.200442870314516    0.737111970533705    0.950398699942946  0.0000
  O3     O3        0.475682748532871    0.402058555145858    0.264933279120829  0.0000
  O1     O1        0.592839835176164    0.386511062873163    0.728712448297832  0.0000
  O1     O1        0.596987274669774    0.586168095802489    0.750111935166792  0.0000
  O1     O1        0.465533676897419    0.606670204223969    0.262619299839312  0.0000
  O1     O1        0.967267672569850    0.902405048640357    0.251737287059853  0.0000
  O1     O1        0.090290084711581    0.890561623035569    0.740268369940699  0.0000
  O1     O1        0.091389218241558    0.090132738361695    0.748652401783049  0.0000
  O1     O1        0.968023988413314    0.108823240177166    0.264475088829081  0.0000
  O1     O1        0.362134491793148    0.351242770046699    0.497162046285551  0.0000
  O3     O3        0.689668362344123    0.364807466781447    0.478851359107409  0.0000
  O1     O1        0.690194426605549    0.626194437786023    0.503833925078747  0.0000
  O1     O1        0.374551864719909    0.635470689017152    0.517454902304071  0.0000
  O1     O1        0.870650719369451    0.855573986165044    0.494774465310563  0.0000
  O1     O1        0.188080961597016    0.866306796146588    0.492447107446854  0.0000
  O1     O1        0.191039745039213    0.131279168068098    0.507123532297817  0.0000
  O1     O1        0.869767413581255    0.139191670806193    0.513209663944390  0.0000
  O1     O1        0.276660555369942    0.498963646208580    0.339247527244379  0.0000
  O1     O1        0.802611517551580    0.489262729507883    0.687462808019496  0.0000
  O1     O1        0.773895412672500    0.002021919994417    0.331035517609608  0.0000
  O1     O1        0.298408011409143    0.994099626407417    0.693030949382814  0.0000
  O1     O1        0.363394133466212    0.488663211629460    0.682246257791849  0.0000
  O3     O3        0.691260670143701    0.495604735059235    0.304490924212825  0.0000
  O1     O1        0.857920221876215    0.992653348623077    0.672872862484122  0.0000
  O1     O1        0.197138168563381    0.003115406359149    0.304867488955601  0.0000
