data_c00016.vasp
_audit_creation_method             Generated by GULP
_audit_author_name                 Salvador R. G. Balestra
_symmetry_space_group_name_H-M     'P 1             '
_symmetry_Int_Tables_number        1

loop_
_symmetry_equiv_pos_site_id
_symmetry_equiv_pos_as_xyz
_cell_length_a                       10.1599
_cell_length_b                       15.8595
_cell_length_c                        9.2881
_cell_angle_alpha                   89.9715
_cell_angle_beta                   105.0134
_cell_angle_gamma                   90.7048

loop_
_atom_site_label
_atom_site_type_symbol
_atom_site_fract_x
_atom_site_fract_y
_atom_site_fract_z
_atom_site_charge
  Si     Si        0.351599999999962    0.244500000000016    0.893900000000031  0.0000
  Si     Si        0.347040039992008    0.402495775829627    0.692276917270848  0.0000
  Ge     Ge        0.636912031991647    0.227004859335542    0.120802684334208  0.0000
  Ge     Ge        0.662209783848950    0.726298880352188    0.121955783540672  0.0000
  Ge     Ge        0.364329603532429    0.752739778389243    0.907725301402960  0.0000
  Ge     Ge        0.862357289273879    0.736323819932265    0.908828382146985  0.0000
  Ge     Ge        0.164931612456380    0.739342573922962    0.122465706861806  0.0000
  Ge     Ge        0.140592326772196    0.238749640626984    0.098499633338356  0.0000
  Ge     Ge        0.830968274296812    0.246455025778968    0.908713395883809  0.0000
  Ge     Ge        0.253798512894906    0.379178022021744    0.351103864563409  0.0000
  Ge     Ge        0.668280069538434    0.394645723470733    0.690878153966853  0.0000
  Ge     Ge        0.680301770246172    0.593813945265479    0.684060482477284  0.0000
  Ge     Ge        0.265897311945765    0.580887493097622    0.327624000329847  0.0000
  Ge     Ge        0.781842481931863    0.875581100892337    0.351261269166459  0.0000
  Ge     Ge        0.191085193000154    0.902679505727658    0.701173481335397  0.0000
  Ge     Ge        0.173193980934694    0.105510833637994    0.668433955156017  0.0000
  Ge     Ge        0.762867425048574    0.075890727523244    0.324675790468343  0.0000
  Ge     Ge        0.581869139730506    0.372509458521122    0.350567907896415  0.0000
  Ge     Ge        0.580497846051427    0.578777059374799    0.325718004684267  0.0000
  Ge     Ge        0.367974584221486    0.594231006246440    0.697958905751796  0.0000
  Ge     Ge        0.874315374740244    0.896867855952022    0.713175108690566  0.0000
  Ge     Ge        0.098398361580687    0.886231835921737    0.342817595464555  0.0000
  Ge     Ge        0.077619688146741    0.087876370296528    0.310407321388710  0.0000
  Ge     Ge        0.860504314102361    0.098056578624551    0.685458528097677  0.0000
  O3     O3        0.510667009615262    0.225156203384270    0.955690432332548  0.0000
  O1     O1        0.539612884366274    0.749399749028604    0.962804842827027  0.0000
  O1     O1        0.038294160077836    0.738453861178733    0.960687499943365  0.0000
  O1     O1        0.004910462558679    0.259608556141315    0.950205571067407  0.0000
  O3     O3        0.291295867037519    0.177841001542871    0.765944104114016  0.0000
  O1     O1        0.633980648312663    0.137882197664683    0.224344973117313  0.0000
  O1     O1        0.668188863075486    0.802015954962338    0.256542652077966  0.0000
  O1     O1        0.317311417238170    0.847097429082683    0.819509992491633  0.0000
  O1     O1        0.809917915908013    0.657856077212624    0.780679494238669  0.0000
  O1     O1        0.152585095204168    0.651264374593390    0.227514598275657  0.0000
  O1     O1        0.143321676237506    0.310161677600945    0.238598266880173  0.0000
  O1     O1        0.746092695015604    0.337863261848771    0.842692504596851  0.0000
  O2     O2        0.340667090137390    0.339327805589351    0.825724944079012  0.0000
  O1     O1        0.636193250897136    0.316832950723928    0.220563216106807  0.0000
  O1     O1        0.645755908018762    0.629305478356221    0.196715969829540  0.0000
  O1     O1        0.301351861654645    0.669407348079986    0.789512072160356  0.0000
  O1     O1        0.812131867919087    0.832803165982493    0.827951473280469  0.0000
  O1     O1        0.169853666695490    0.826941114205010    0.231727358617720  0.0000
  O1     O1        0.130731392815795    0.140991661738268    0.174235990911819  0.0000
  O1     O1        0.785060196271498    0.166944675570804    0.779516657800158  0.0000
  O3     O3        0.285885378137573    0.242637553094650    0.033045892477699  0.0000
  O1     O1        0.788645751391995    0.223512043826832    0.070577108969278  0.0000
  O1     O1        0.812663019046364    0.723978447499021    0.069453919072745  0.0000
  O1     O1        0.315143826099371    0.742090925608614    0.069800941974944  0.0000
  O1     O1        0.408561044120987    0.360217504223331    0.315964007371563  0.0000
  O3     O3        0.496963473670152    0.419693298084277    0.667383149232602  0.0000
  O1     O1        0.542823464962775    0.602462934470552    0.759685836560197  0.0000
  O1     O1        0.406996997139416    0.580058623426192    0.258359283596514  0.0000
  O1     O1        0.923604363674699    0.877469918637209    0.282478546902599  0.0000
  O1     O1        0.049500894737778    0.904529530866728    0.769472882403397  0.0000
  O1     O1        0.035815573482271    0.105954898876174    0.744044426210333  0.0000
  O1     O1        0.903569121036002    0.076125511120755    0.254197820477592  0.0000
  O3     O3        0.256509721951202    0.364325970682699    0.537730357900570  0.0000
  O1     O1        0.664664326661371    0.341338605819415    0.529027716052996  0.0000
  O1     O1        0.632692246350773    0.623839147578793    0.499934151967990  0.0000
  O1     O1        0.319165791010045    0.612476077818373    0.510293007181108  0.0000
  O1     O1        0.831935405687622    0.853257777413355    0.537265435396966  0.0000
  O1     O1        0.150907143969729    0.856975245540736    0.527040211896368  0.0000
  O1     O1        0.127755449840725    0.134801953043286    0.484196908185306  0.0000
  O1     O1        0.815475438442204    0.119927435143044    0.499413710343086  0.0000
  O1     O1        0.199336424095340    0.480538752693954    0.311818053469438  0.0000
  O1     O1        0.742305299257340    0.492725642358812    0.701568781067681  0.0000
  O1     O1        0.708216616153152    0.974053634626624    0.331587414306975  0.0000
  O1     O1        0.240534117342916    0.006226914406891    0.685368518006942  0.0000
  O3     O3        0.302664614371325    0.495019051566786    0.729646376724474  0.0000
  O1     O1        0.630974599632446    0.475804976720197    0.343640421362126  0.0000
  O1     O1        0.809810427988414    0.996404894431853    0.711142723924359  0.0000
  O1     O1        0.147416278874577    0.989397811094601    0.330336346767233  0.0000
