data_c00040.vasp
_audit_creation_method             Generated by GULP
_audit_author_name                 Salvador R. G. Balestra
_symmetry_space_group_name_H-M     'P 1             '
_symmetry_Int_Tables_number        1

loop_
_symmetry_equiv_pos_site_id
_symmetry_equiv_pos_as_xyz
_cell_length_a                       10.3008
_cell_length_b                       15.8633
_cell_length_c                        9.2725
_cell_angle_alpha                   90.1487
_cell_angle_beta                   105.0541
_cell_angle_gamma                   90.7658

loop_
_atom_site_label
_atom_site_type_symbol
_atom_site_fract_x
_atom_site_fract_y
_atom_site_fract_z
_atom_site_charge
  Si     Si        0.403900000000021    0.397900000000050    0.686299999999960  0.0000
  Si     Si        0.605131475053941    0.582226740580854    0.304096911483303  0.0000
  Ge     Ge        0.394339337343467    0.240806243237324    0.880600510960891  0.0000
  Ge     Ge        0.691934180953423    0.238307209588122    0.102516306976851  0.0000
  Ge     Ge        0.680594474612579    0.729843268468786    0.105541385304578  0.0000
  Ge     Ge        0.385210081015338    0.748474559179683    0.890408623858784  0.0000
  Ge     Ge        0.879262113457247    0.739412388821157    0.889820767270416  0.0000
  Ge     Ge        0.181748394199774    0.732615343679333    0.099062733934444  0.0000
  Ge     Ge        0.190848689955300    0.231947220800926    0.094230117815946  0.0000
  Ge     Ge        0.891275498640792    0.254765515715799    0.892575707695437  0.0000
  Ge     Ge        0.310310099242127    0.377769392003831    0.330742780012530  0.0000
  Ge     Ge        0.711904026516114    0.398611654722405    0.679141759184616  0.0000
  Ge     Ge        0.703150889380317    0.600596575033710    0.652367148569735  0.0000
  Ge     Ge        0.296822432853428    0.578155865888823    0.309173689653634  0.0000
  Ge     Ge        0.804216944351433    0.881013807735981    0.332618678322519  0.0000
  Ge     Ge        0.210495169693850    0.895440035917247    0.680758254260435  0.0000
  Ge     Ge        0.212198869503540    0.099279919193951    0.653046814093752  0.0000
  Ge     Ge        0.801666658289124    0.081907665233490    0.308195274908919  0.0000
  Ge     Ge        0.622232341138191    0.383564335155987    0.323642145085725  0.0000
  Ge     Ge        0.393334673948340    0.595572616095521    0.670127143567183  0.0000
  Ge     Ge        0.900208311386551    0.899568434341175    0.697728854869034  0.0000
  Ge     Ge        0.116241801364503    0.880030645826132    0.323786593491362  0.0000
  Ge     Ge        0.112941568485885    0.082223359892659    0.295872788162196  0.0000
  Ge     Ge        0.903192619647148    0.101514309051495    0.672261260290581  0.0000
  O1     O1        0.566836842295245    0.237011782744684    0.940166542718299  0.0000
  O1     O1        0.558024042948539    0.750098498560070    0.946496383325396  0.0000
  O1     O1        0.052471072696506    0.733316829937585    0.941763002058472  0.0000
  O1     O1        0.064041157523925    0.257647404825883    0.941614392374056  0.0000
  O1     O1        0.341038729137536    0.161528165827464    0.753446194568011  0.0000
  O1     O1        0.684640107255201    0.148501985900559    0.204401717158892  0.0000
  O1     O1        0.689799617167143    0.808461555244405    0.235155787323893  0.0000
  O1     O1        0.336722643955030    0.840230194393781    0.795987605514767  0.0000
  O1     O1        0.825563127835295    0.667876034047338    0.747489986755506  0.0000
  O1     O1        0.180514492387643    0.639577917845117    0.194414744568502  0.0000
  O1     O1        0.198987304625154    0.303338534989048    0.237140308564856  0.0000
  O1     O1        0.832502579572506    0.347721424038775    0.808659334056903  0.0000
  O3     O3        0.348447305445578    0.337550109506792    0.795342082106761  0.0000
  O1     O1        0.693321967466791    0.327085975494796    0.209060760029293  0.0000
  O3     O3        0.656425125640452    0.633257753024599    0.180877532263651  0.0000
  O1     O1        0.327737846172975    0.662263029992889    0.776102658139702  0.0000
  O1     O1        0.838192828878270    0.838393611841556    0.816827689462185  0.0000
  O1     O1        0.183307401083036    0.816934745797635    0.214644405334975  0.0000
  O1     O1        0.168517125488536    0.133692617930676    0.161050614802796  0.0000
  O1     O1        0.835652420799849    0.172530678387943    0.769301744409331  0.0000
  O1     O1        0.336604614336980    0.231597537771667    0.036709161757026  0.0000
  O1     O1        0.842034774137838    0.239722107492759    0.053236022950232  0.0000
  O1     O1        0.826004857551280    0.722276072394523    0.047021276684967  0.0000
  O1     O1        0.330681377728863    0.740080247070956    0.048435635881579  0.0000
  O1     O1        0.451142020041940    0.371242679798347    0.264306263142869  0.0000
  O3     O3        0.565620888583014    0.402943810088966    0.738128986419427  0.0000
  O1     O1        0.565377378997949    0.606924725267460    0.723717691224453  0.0000
  O3     O3        0.444166707162558    0.573793679123150    0.251856019134792  0.0000
  O1     O1        0.943470722351540    0.876949299877976    0.263042413790864  0.0000
  O1     O1        0.073427606097481    0.899649375705362    0.753370322825624  0.0000
  O1     O1        0.076552422961089    0.106335084631102    0.728594225695788  0.0000
  O1     O1        0.940544167095891    0.076301647788861    0.238793926060487  0.0000
  O3     O3        0.360992070889532    0.358564893621214    0.520154395819945  0.0000
  O1     O1        0.680462868191740    0.351743256630451    0.506267264962868  0.0000
  O3     O3        0.650878877394053    0.628116936437877    0.464843544299632  0.0000
  O1     O1        0.332614911837020    0.620318335330261    0.485606842102773  0.0000
  O1     O1        0.849953028064756    0.858656380122470    0.519308636242479  0.0000
  O1     O1        0.163097136652029    0.848847690047062    0.507013238446531  0.0000
  O1     O1        0.165552849905635    0.129686727844168    0.468910901193625  0.0000
  O1     O1        0.855003819696148    0.123102541277941    0.485551891749579  0.0000
  O1     O1        0.239998360316669    0.475822146297951    0.304867541645331  0.0000
  O1     O1        0.765150416987842    0.500696531732009    0.668694526883472  0.0000
  O1     O1        0.739024237728106    0.981273439920212    0.311718150072515  0.0000
  O1     O1        0.264445932566856    0.996711513460640    0.661497439093846  0.0000
  O3     O3        0.346192869537008    0.491129051144291    0.688353207942263  0.0000
  O3     O3        0.666802859258894    0.489222268334468    0.320347540559551  0.0000
  O1     O1        0.847432655789990    0.001343117176900    0.699184095781542  0.0000
  O1     O1        0.172981970154410    0.981393226506060    0.312496027689238  0.0000
