data_c00034.vasp
_audit_creation_method             Generated by GULP
_audit_author_name                 Salvador R. G. Balestra
_symmetry_space_group_name_H-M     'P 1             '
_symmetry_Int_Tables_number        1

loop_
_symmetry_equiv_pos_site_id
_symmetry_equiv_pos_as_xyz
_cell_length_a                       10.2798
_cell_length_b                       15.8304
_cell_length_c                        9.3101
_cell_angle_alpha                   89.6561
_cell_angle_beta                   105.2466
_cell_angle_gamma                   89.6398

loop_
_atom_site_label
_atom_site_type_symbol
_atom_site_fract_x
_atom_site_fract_y
_atom_site_fract_z
_atom_site_charge
  Si     Si        0.306699999999978    0.397900000000050    0.331699999999955  0.0000
  Si     Si        0.398925784758759    0.577325481937299    0.704550190186662  0.0000
  Ge     Ge        0.396298787009244    0.226458508580775    0.906626738613368  0.0000
  Ge     Ge        0.691774905852876    0.248435468438082    0.117366455915841  0.0000
  Ge     Ge        0.689580552398517    0.744506656441504    0.120245385377731  0.0000
  Ge     Ge        0.390930300183410    0.733690395071080    0.900651851697326  0.0000
  Ge     Ge        0.888114952211296    0.726745413832324    0.911006433807892  0.0000
  Ge     Ge        0.189507329379636    0.741042757987951    0.115385010672831  0.0000
  Ge     Ge        0.201456870050847    0.245582463229547    0.123964295227438  0.0000
  Ge     Ge        0.897456698763354    0.242412873006002    0.911924359606147  0.0000
  Ge     Ge        0.712346220105554    0.378439924105072    0.674611877797315  0.0000
  Ge     Ge        0.708144931701501    0.582572595325238    0.698416698861004  0.0000
  Ge     Ge        0.308698933008404    0.593938615799926    0.349263728684843  0.0000
  Ge     Ge        0.803310074895597    0.899606719277710    0.325251861140162  0.0000
  Ge     Ge        0.211504301637665    0.876710668475997    0.672419413568400  0.0000
  Ge     Ge        0.219818757077059    0.080429152695241    0.698128056348330  0.0000
  Ge     Ge        0.815087374363398    0.100836901827197    0.351019007424249  0.0000
  Ge     Ge        0.400658488934994    0.380570434071688    0.687019534897085  0.0000
  Ge     Ge        0.614063468471199    0.395794434195315    0.322566040116655  0.0000
  Ge     Ge        0.623575957469162    0.599090953002573    0.346444295479223  0.0000
  Ge     Ge        0.900654613517353    0.879333519327843    0.687876335406518  0.0000
  Ge     Ge        0.116614724078373    0.893792715824277    0.316639424549235  0.0000
  Ge     Ge        0.128806164642404    0.096777743150410    0.342301203346205  0.0000
  Ge     Ge        0.908111675195389    0.081660289741213    0.713857022385619  0.0000
  O1     O1        0.569529898328855    0.224822376700314    0.959086687408281  0.0000
  O1     O1        0.563907106536435    0.740310218868367    0.958772991508751  0.0000
  O1     O1        0.061252404886704    0.721665927979328    0.960226992230499  0.0000
  O1     O1        0.070816708449571    0.248783567488546    0.966809387244868  0.0000
  O1     O1        0.346461003855241    0.132895647142282    0.819529126789600  0.0000
  O1     O1        0.700941679901196    0.173320419977892    0.253764881736460  0.0000
  O1     O1        0.682828273681708    0.836331247915579    0.216606910940735  0.0000
  O1     O1        0.337386570157926    0.813560316418611    0.774928880317450  0.0000
  O1     O1        0.827414303073744    0.632890990603727    0.830776812315602  0.0000
  O1     O1        0.193539957484876    0.664832454384061    0.250368021957621  0.0000
  O3     O3        0.199912276128614    0.335830102769207    0.229391203587983  0.0000
  O1     O1        0.841983274276922    0.319105802589744    0.779369075804737  0.0000
  O1     O1        0.334418731687061    0.309237790317818    0.784840213673597  0.0000
  O1     O1        0.661607207339527    0.345463651025039    0.183444077663320  0.0000
  O1     O1        0.692702220488594    0.658976341470144    0.234088893131769  0.0000
  O3     O3        0.343841032082798    0.637446187534825    0.813270060587765  0.0000
  O1     O1        0.833123603886740    0.808569872911915    0.786379042703614  0.0000
  O1     O1        0.173641237317063    0.838676429212850    0.187720543978630  0.0000
  O1     O1        0.197810848863345    0.158077733844773    0.231199247015304  0.0000
  O1     O1        0.851407193112158    0.145069699180171    0.832693717507749  0.0000
  O1     O1        0.347386016711064    0.239200064089194    0.067527697665849  0.0000
  O1     O1        0.841262887464719    0.254309999841636    0.067672708992213  0.0000
  O1     O1        0.839882403437398    0.743254644482125    0.070821900651697  0.0000
  O1     O1        0.335437507339535    0.740858573874357    0.057611086835618  0.0000
  O3     O3        0.439818436227798    0.404011063716710    0.272485188721943  0.0000
  O1     O1        0.573067753198885    0.370230927558721    0.743894599094791  0.0000
  O3     O3        0.561151514322272    0.575219378157256    0.755241585847692  0.0000
  O1     O1        0.450477201226500    0.604972968312047    0.287082564243834  0.0000
  O1     O1        0.944151513300134    0.902488760851622    0.258669898507685  0.0000
  O1     O1        0.074322355403756    0.873296179027193    0.745403890490355  0.0000
  O1     O1        0.081529410925489    0.078400089244416    0.768662930576946  0.0000
  O1     O1        0.955566216156894    0.102371497498848    0.283336315491095  0.0000
  O3     O3        0.349970454624155    0.360395234104978    0.498687986046361  0.0000
  O1     O1        0.670755977985072    0.345856011568669    0.491862100703173  0.0000
  O1     O1        0.675742550366812    0.632362595384512    0.528346965171500  0.0000
  O3     O3        0.350703902854550    0.614822130954803    0.537634919472615  0.0000
  O1     O1        0.851097841367308    0.857168480326802    0.502034581754482  0.0000
  O1     O1        0.164623318831733    0.845945450135778    0.489257842040061  0.0000
  O1     O1        0.178588896927989    0.127848891385878    0.525153184843613  0.0000
  O1     O1        0.860505480588641    0.123933615952012    0.536774500908925  0.0000
  O3     O3        0.245625500719723    0.491894326027396    0.327816641284029  0.0000
  O1     O1        0.761891018807864    0.481752095761443    0.679036254571751  0.0000
  O1     O1        0.746075008834856    0.001136480217976    0.330692530164845  0.0000
  O1     O1        0.269268381592130    0.978503070432605    0.678186114285905  0.0000
  O3     O3        0.347401541636430    0.482354339231910    0.712888046864497  0.0000
  O1     O1        0.675620570597172    0.496480037494917    0.338791383847402  0.0000
  O1     O1        0.849028822980648    0.980674739343461    0.714127478999970  0.0000
  O1     O1        0.180596959240632    0.994225234656278    0.330725413134573  0.0000
