data_c00043.vasp
_audit_creation_method             Generated by GULP
_audit_author_name                 Salvador R. G. Balestra
_symmetry_space_group_name_H-M     'P 1             '
_symmetry_Int_Tables_number        1

loop_
_symmetry_equiv_pos_site_id
_symmetry_equiv_pos_as_xyz
_cell_length_a                       10.3151
_cell_length_b                       15.8805
_cell_length_c                        9.3059
_cell_angle_alpha                   89.7595
_cell_angle_beta                   104.9567
_cell_angle_gamma                   89.8176

loop_
_atom_site_label
_atom_site_type_symbol
_atom_site_fract_x
_atom_site_fract_y
_atom_site_fract_z
_atom_site_charge
  Si     Si        0.403900000000021    0.397900000000050    0.686299999999960  0.0000
  Si     Si        0.114928479571612    0.903062830898831    0.319033083206424  0.0000
  Ge     Ge        0.333041296255937    0.252038756569956    0.895761127752203  0.0000
  Ge     Ge        0.629935023974747    0.247110931433032    0.112102725808080  0.0000
  Ge     Ge        0.625894633484708    0.761070822608169    0.110013155811676  0.0000
  Ge     Ge        0.324650200305390    0.745797053261605    0.904649716585702  0.0000
  Ge     Ge        0.827396461651651    0.750584220499112    0.901776624336063  0.0000
  Ge     Ge        0.123520098277143    0.747866901129175    0.120407447724691  0.0000
  Ge     Ge        0.134584554664212    0.257629510303937    0.111355659488458  0.0000
  Ge     Ge        0.834344458276666    0.247303941407733    0.903874181605848  0.0000
  Ge     Ge        0.307040610830065    0.401319213702633    0.337060290837043  0.0000
  Ge     Ge        0.709221665343200    0.396767324573266    0.677420775843447  0.0000
  Ge     Ge        0.709907707798577    0.598752258547966    0.689332966861061  0.0000
  Ge     Ge        0.302307968455643    0.604284136442447    0.343272419052155  0.0000
  Ge     Ge        0.809264285957489    0.901872416899627    0.330143035681841  0.0000
  Ge     Ge        0.212226249165829    0.896235791209291    0.675503898629915  0.0000
  Ge     Ge        0.219361001150976    0.096831952151557    0.681942998792118  0.0000
  Ge     Ge        0.810863955386422    0.106616419403067    0.337374788996229  0.0000
  Ge     Ge        0.616494017877413    0.404018671151500    0.316805610881764  0.0000
  Ge     Ge        0.611732275058621    0.606530121211437    0.326206039976463  0.0000
  Ge     Ge        0.400981186019429    0.596949497741070    0.700714822075444  0.0000
  Ge     Ge        0.899021282382911    0.896591330832975    0.682665960622279  0.0000
  Ge     Ge        0.118801220874940    0.101105922525969    0.317428308039066  0.0000
  Ge     Ge        0.907142398291193    0.099623751503702    0.691310808769718  0.0000
  O1     O1        0.457297360150439    0.243984437881135    0.056655471814076  0.0000
  O1     O1        0.453245673822289    0.763804795552466    0.059008908838277  0.0000
  O1     O1        0.951539217124143    0.742990181402915    0.063357382962731  0.0000
  O1     O1        0.961955149422787    0.263197665486270    0.059050105202340  0.0000
  O1     O1        0.333179569652845    0.165421360921261    0.785991415557888  0.0000
  O1     O1        0.681075017847516    0.164435992364807    0.232081919465120  0.0000
  O1     O1        0.684021904205886    0.850785304214704    0.206791521292273  0.0000
  O1     O1        0.322150935911400    0.822649943751792    0.772002568687464  0.0000
  O1     O1        0.829835926141756    0.664656144076327    0.790341975618733  0.0000
  O1     O1        0.175687844241901    0.664565407840238    0.237391750349179  0.0000
  O1     O1        0.184578292617327    0.339573000877226    0.231799130522024  0.0000
  O1     O1        0.825818974425876    0.329518099101956    0.780560582570221  0.0000
  O3     O3        0.343835774037669    0.342579706199204    0.796573506068020  0.0000
  O1     O1        0.679060570199445    0.340579218114014    0.203030618790118  0.0000
  O1     O1        0.678421348361248    0.674675112343921    0.222942832885079  0.0000
  O1     O1        0.336021374962511    0.649076607399156    0.826267320967763  0.0000
  O1     O1        0.835279036545192    0.841535190455528    0.805615602964266  0.0000
  O3     O3        0.173571615040510    0.841089166683830    0.216234359042578  0.0000
  O1     O1        0.184984584187722    0.164276366624087    0.206095773806093  0.0000
  O1     O1        0.849639933509890    0.153508037524341    0.820116864523056  0.0000
  O1     O1        0.186488454979314    0.261083952315000    0.951127571337821  0.0000
  O1     O1        0.686257103475698    0.241516375131909    0.955667624879064  0.0000
  O1     O1        0.677323471268581    0.753607014856606    0.950407947140204  0.0000
  O1     O1        0.179209861636268    0.746050831250870    0.962460972758448  0.0000
  O1     O1        0.443607083960461    0.401798955518748    0.264039673426721  0.0000
  O3     O3        0.565359999864096    0.397385561394929    0.741855657487905  0.0000
  O1     O1        0.572304068192319    0.600296466491648    0.761789115024139  0.0000
  O1     O1        0.438905351682910    0.608682999626755    0.269476916193649  0.0000
  O3     O3        0.953209298555716    0.902639370697547    0.266320797240562  0.0000
  O1     O1        0.071281553516205    0.894357339729588    0.741037883586557  0.0000
  O1     O1        0.079265572595506    0.096460245063322    0.749166571051977  0.0000
  O1     O1        0.946970221606711    0.111109082104031    0.262643177376420  0.0000
  O3     O3        0.358803248427352    0.363142232568610    0.518579676730267  0.0000
  O1     O1        0.669931613448654    0.366271694797286    0.495743363615293  0.0000
  O1     O1        0.657481647987262    0.634955199616778    0.509623269984080  0.0000
  O1     O1        0.346829571026986    0.638626110835790    0.524491562625656  0.0000
  O1     O1        0.844548564262307    0.857514628311680    0.504713840891938  0.0000
  O3     O3        0.161101661131730    0.871198749662999    0.488729512298300  0.0000
  O1     O1        0.174519012101492    0.130177650488122    0.500128685975449  0.0000
  O1     O1        0.858297050030734    0.143963546384949    0.516712300070912  0.0000
  O1     O1        0.247851560708988    0.502010922189483    0.338498955106726  0.0000
  O1     O1        0.770207150932409    0.497943460631616    0.690827885488176  0.0000
  O1     O1        0.760392631323476    0.004159202329683    0.342201245217907  0.0000
  O1     O1        0.280898256878671    0.995325820572711    0.693665503404177  0.0000
  O3     O3        0.349660701367021    0.492757023779018    0.687289203491630  0.0000
  O1     O1        0.668401383520521    0.505976140664168    0.309289885587151  0.0000
  O1     O1        0.845705617690657    0.999073810417904    0.679643329421452  0.0000
  O3     O3        0.167310951926064    0.997121935443228    0.305917651257565  0.0000
