data_c00014.vasp
_audit_creation_method             Generated by GULP
_audit_author_name                 Salvador R. G. Balestra
_symmetry_space_group_name_H-M     'P 1             '
_symmetry_Int_Tables_number        1

loop_
_symmetry_equiv_pos_site_id
_symmetry_equiv_pos_as_xyz
_cell_length_a                       10.2401
_cell_length_b                       15.8908
_cell_length_c                        9.3172
_cell_angle_alpha                   89.4869
_cell_angle_beta                   105.7614
_cell_angle_gamma                   90.3947

loop_
_atom_site_label
_atom_site_type_symbol
_atom_site_fract_x
_atom_site_fract_y
_atom_site_fract_z
_atom_site_charge
  Si     Si        0.351599999999962    0.244500000000016    0.893900000000031  0.0000
  Si     Si        0.181763508562316    0.101965155544372    0.690453410280478  0.0000
  Ge     Ge        0.645712739528990    0.256442882668187    0.099388925932383  0.0000
  Ge     Ge        0.675901069511183    0.754144889801953    0.108110511323599  0.0000
  Ge     Ge        0.373047782354965    0.759120673453410    0.896182429388589  0.0000
  Ge     Ge        0.876760212445922    0.740978348919873    0.899179791802037  0.0000
  Ge     Ge        0.177733851219602    0.764923044370644    0.112174111599516  0.0000
  Ge     Ge        0.163442229921060    0.258705282811498    0.107944451427976  0.0000
  Ge     Ge        0.855258413929845    0.250403355848701    0.894485335252218  0.0000
  Ge     Ge        0.269236073935655    0.413918259511772    0.318988073280784  0.0000
  Ge     Ge        0.684519766657214    0.392810936508090    0.663838141174182  0.0000
  Ge     Ge        0.695669988643442    0.596429957655987    0.688577588510162  0.0000
  Ge     Ge        0.289815439452707    0.613057345548480    0.336968160121825  0.0000
  Ge     Ge        0.789732656696416    0.909742476905887    0.316163762387552  0.0000
  Ge     Ge        0.195335062888266    0.904500447447228    0.676921643238134  0.0000
  Ge     Ge        0.785639670506729    0.112190758263287    0.331108154066324  0.0000
  Ge     Ge        0.371074043678401    0.395429117000625    0.682377168365025  0.0000
  Ge     Ge        0.586200597823366    0.407580814314018    0.309545751127941  0.0000
  Ge     Ge        0.603809645917269    0.608757294491431    0.331408191015500  0.0000
  Ge     Ge        0.384182129748861    0.597748137081809    0.702682418641267  0.0000
  Ge     Ge        0.881259715826460    0.894288820184030    0.678830827213403  0.0000
  Ge     Ge        0.105584454171865    0.913978928373999    0.316838459084078  0.0000
  Ge     Ge        0.105235752278036    0.115793714672253    0.339864086424789  0.0000
  Ge     Ge        0.871038981806219    0.095400410057005    0.690349695319255  0.0000
  O3     O3        0.514414566360477    0.237346756977977    0.941055146977534  0.0000
  O1     O1        0.547882351751238    0.755315947520240    0.946662961470951  0.0000
  O1     O1        0.051014420000715    0.746279696302667    0.952913464274741  0.0000
  O1     O1        0.029839430089407    0.249178223168725    0.955256150271603  0.0000
  O2     O2        0.289175558378611    0.160009977523939    0.806811107014958  0.0000
  O1     O1        0.661453362831450    0.176861695124249    0.228002032407674  0.0000
  O1     O1        0.671280719904611    0.844625334863054    0.206960111961600  0.0000
  O1     O1        0.325049962713360    0.844796412857289    0.781229820023539  0.0000
  O1     O1        0.827438960614691    0.648060329206794    0.808220163461007  0.0000
  O1     O1        0.178492943285520    0.687043967216265    0.241866676147637  0.0000
  O1     O1        0.154092428357662    0.351462229029678    0.198871605005857  0.0000
  O1     O1        0.810808923683650    0.330896350507082    0.768135911794626  0.0000
  O3     O3        0.304974081882554    0.325325628274890    0.787587806897471  0.0000
  O1     O1        0.633277811393142    0.352265726401580    0.175627614881992  0.0000
  O1     O1        0.674911782530513    0.668163281718761    0.219500904680986  0.0000
  O1     O1        0.318051341473520    0.665760752516839    0.805600394500142  0.0000
  O1     O1        0.814707240352737    0.823315465179190    0.778235815596919  0.0000
  O1     O1        0.167904586977882    0.860361896038706    0.192220076421646  0.0000
  O1     O1        0.180526229561971    0.180786180596859    0.240098594895690  0.0000
  O1     O1        0.809215262577437    0.155087274363675    0.807761570863363  0.0000
  O3     O3        0.309495031607416    0.255255479694299    0.046328907383877  0.0000
  O1     O1        0.793013276268221    0.260750355510319    0.044458710770030  0.0000
  O1     O1        0.826034699265625    0.749887079220986    0.058647814997606  0.0000
  O1     O1        0.325455442979133    0.765991340252914    0.057686338581034  0.0000
  O1     O1        0.413589350254769    0.417766248651735    0.259337364381632  0.0000
  O1     O1        0.545085600651753    0.389339797317673    0.733694767666339  0.0000
  O1     O1        0.558828731391827    0.595402814805174    0.762177728062926  0.0000
  O1     O1        0.429587969470574    0.613120416587276    0.267876536684452  0.0000
  O1     O1        0.931947785131018    0.914849249724162    0.251903462132333  0.0000
  O1     O1        0.056111656658357    0.892639958259654    0.744014958198372  0.0000
  O3     O3        0.047428489571389    0.091096062500442    0.745585675641561  0.0000
  O1     O1        0.931085391814997    0.120518805068723    0.272336406014912  0.0000
  O1     O1        0.308852602069493    0.372635221473611    0.497055152660985  0.0000
  O1     O1        0.637598165696967    0.359521202054253    0.481786144111537  0.0000
  O1     O1        0.653243557261980    0.641916494325896    0.513704106809937  0.0000
  O1     O1        0.343062912446838    0.635592468183821    0.522757606840367  0.0000
  O1     O1        0.839194623250067    0.868680415932036    0.493790662913986  0.0000
  O1     O1        0.156089192389257    0.872473906943063    0.494252504589316  0.0000
  O3     O3        0.145019774737110    0.143769370595918    0.526846439228896  0.0000
  O1     O1        0.821088954111525    0.139132478919463    0.515445775218298  0.0000
  O1     O1        0.213252032987671    0.515270540325650    0.319472505567585  0.0000
  O1     O1        0.741942640861700    0.494506029488838    0.668282280457692  0.0000
  O1     O1        0.728469674402180    0.009687971174377    0.316879679022075  0.0000
  O3     O3        0.243808332843876    0.009944776101388    0.683401445696896  0.0000
  O1     O1        0.324501328806676    0.496862745633265    0.710051210679201  0.0000
  O1     O1        0.655555956229706    0.506654627153525    0.323096457061970  0.0000
  O1     O1        0.818204836444949    0.993163312080752    0.693234198984744  0.0000
  O1     O1        0.161694930399847    0.016307488922296    0.325009723307268  0.0000
