data_c00011.vasp
_audit_creation_method             Generated by GULP
_audit_author_name                 Salvador R. G. Balestra
_symmetry_space_group_name_H-M     'P 1             '
_symmetry_Int_Tables_number        1

loop_
_symmetry_equiv_pos_site_id
_symmetry_equiv_pos_as_xyz
_cell_length_a                       10.2474
_cell_length_b                       15.8691
_cell_length_c                        9.3052
_cell_angle_alpha                   90.4789
_cell_angle_beta                   105.8107
_cell_angle_gamma                   90.1647

loop_
_atom_site_label
_atom_site_type_symbol
_atom_site_fract_x
_atom_site_fract_y
_atom_site_fract_z
_atom_site_charge
  Si     Si        0.351599999999962    0.244500000000016    0.893900000000031  0.0000
  Si     Si        0.336541539751942    0.575408621700948    0.315853271755833  0.0000
  Ge     Ge        0.647471483912486    0.219701873349136    0.096875568768313  0.0000
  Ge     Ge        0.659395394581735    0.729994640482928    0.107246421825020  0.0000
  Ge     Ge        0.355064489302239    0.738855715195223    0.892109342981984  0.0000
  Ge     Ge        0.864315667883160    0.739208858202646    0.901162358106436  0.0000
  Ge     Ge        0.164629674394011    0.720499649061838    0.112009998129527  0.0000
  Ge     Ge        0.159090377463193    0.235142068715988    0.104204945707139  0.0000
  Ge     Ge        0.852104918182565    0.235795639136680    0.890494530038484  0.0000
  Ge     Ge        0.329475620584916    0.376822413095165    0.335124881379167  0.0000
  Ge     Ge        0.739764736039474    0.391662188779050    0.687294405450086  0.0000
  Ge     Ge        0.734966944582176    0.593016838301782    0.666421768432954  0.0000
  Ge     Ge        0.838596994423272    0.871531578358211    0.339530907842196  0.0000
  Ge     Ge        0.249218216395691    0.898401858677354    0.693310263205769  0.0000
  Ge     Ge        0.229945309615167    0.098036623545880    0.669200569831911  0.0000
  Ge     Ge        0.827090347786759    0.075018567773923    0.306359611222903  0.0000
  Ge     Ge        0.423448987983578    0.390273475172001    0.693822442397718  0.0000
  Ge     Ge        0.642363712235933    0.370282829040069    0.325596420731922  0.0000
  Ge     Ge        0.643893796510576    0.572602920940636    0.306359393079382  0.0000
  Ge     Ge        0.418304628695293    0.591452114760039    0.666684164941143  0.0000
  Ge     Ge        0.932959074199183    0.890068371833072    0.695692519798758  0.0000
  Ge     Ge        0.152403557176557    0.875785155815590    0.328701021249501  0.0000
  Ge     Ge        0.142790844201122    0.078014112665616    0.303911171919129  0.0000
  Ge     Ge        0.912835550271534    0.091000336413853    0.663360673690609  0.0000
  O3     O3        0.471406531959121    0.222611526364192    0.039838444774057  0.0000
  O1     O1        0.484644501078306    0.731139215183180    0.050858212423746  0.0000
  O1     O1        0.990028688349458    0.717260608545534    0.059595978227366  0.0000
  O1     O1        0.984694921162244    0.229781782140790    0.046562368917878  0.0000
  O3     O3        0.341999147704896    0.173662488553199    0.766478575594284  0.0000
  O1     O1        0.697185616587212    0.125411055084843    0.182291220815520  0.0000
  O1     O1        0.712102037614537    0.807388232875129    0.239191025065698  0.0000
  O1     O1        0.364913491441182    0.834002148153957    0.807371081757792  0.0000
  O1     O1        0.853439136422024    0.662428201554626    0.767219091483621  0.0000
  O3     O3        0.220733840465639    0.627401709483828    0.202019156960717  0.0000
  O1     O1        0.199122854776877    0.318528989838482    0.226352517201849  0.0000
  O1     O1        0.859431174654093    0.329136069792797    0.799964373206116  0.0000
  O3     O3        0.371361791843564    0.334866475524668    0.827514646568350  0.0000
  O1     O1        0.707204307093538    0.299791464561480    0.224316046288660  0.0000
  O1     O1        0.703224835619443    0.632562557782510    0.186533661915272  0.0000
  O1     O1        0.345598020872346    0.659742178853521    0.762980521231410  0.0000
  O1     O1        0.882670152279443    0.836119219673685    0.829407438235531  0.0000
  O1     O1        0.220428694731399    0.805024529551855    0.230106178713725  0.0000
  O1     O1        0.210938430771923    0.142249602045149    0.195673962903814  0.0000
  O1     O1        0.839548296770681    0.152741408072632    0.769122633474602  0.0000
  O3     O3        0.213833817989080    0.246157285172227    0.945752460749281  0.0000
  O1     O1        0.703287223394584    0.233368809886975    0.942531448684712  0.0000
  O1     O1        0.715036994582305    0.743011470493048    0.952621569750519  0.0000
  O1     O1        0.208356654195648    0.732193928549484    0.948560069982248  0.0000
  O1     O1        0.467831285796301    0.364469471508809    0.267519674247643  0.0000
  O1     O1        0.596550515369286    0.397276985253997    0.749624701968219  0.0000
  O1     O1        0.592353799239324    0.596822807084001    0.730494864495749  0.0000
  O3     O3        0.467485577748344    0.568836260599626    0.253084036131601  0.0000
  O1     O1        0.977931701402331    0.867697701275012    0.270074002073227  0.0000
  O1     O1        0.105626898311189    0.901388629256331    0.754654578952905  0.0000
  O1     O1        0.087010128682251    0.096677698689438    0.731162308612364  0.0000
  O1     O1        0.968434104804578    0.074666886798177    0.240593156694083  0.0000
  O1     O1        0.367884930852493    0.345740702620606    0.518915936665060  0.0000
  O1     O1        0.692575869674480    0.347042627567941    0.511641243764917  0.0000
  O1     O1        0.695401198955753    0.617730939780721    0.480823876196582  0.0000
  O3     O3        0.377117871182465    0.618645844402042    0.479118194279492  0.0000
  O1     O1        0.885780256451645    0.841123499824617    0.523477255004146  0.0000
  O1     O1        0.205553852579917    0.855841517276214    0.515895329298164  0.0000
  O1     O1        0.184899665047739    0.119292240892676    0.482435176406832  0.0000
  O1     O1        0.866704113004557    0.122261509647908    0.480119555787615  0.0000
  O3     O3        0.282980211864214    0.481670876137319    0.333060847327767  0.0000
  O1     O1        0.799107195859676    0.492174465362551    0.682513646839865  0.0000
  O1     O1        0.779946637439934    0.973104852058865    0.327647975186659  0.0000
  O1     O1        0.305833426838146    0.000224734479249    0.692471065969281  0.0000
  O1     O1        0.363167953186344    0.491510807413337    0.688614163883837  0.0000
  O1     O1        0.698109599539071    0.470883141651184    0.304780970406047  0.0000
  O1     O1        0.862148120563671    0.988691680493553    0.674881329326691  0.0000
  O1     O1        0.201831097868084    0.977182618292896    0.302316319422522  0.0000
