data_c00001.vasp
_audit_creation_method             Generated by GULP
_audit_author_name                 Salvador R. G. Balestra
_symmetry_space_group_name_H-M     'P 1             '
_symmetry_Int_Tables_number        1

loop_
_symmetry_equiv_pos_site_id
_symmetry_equiv_pos_as_xyz
_cell_length_a                       10.1974
_cell_length_b                       15.8811
_cell_length_c                        9.3299
_cell_angle_alpha                   90.5461
_cell_angle_beta                   105.7048
_cell_angle_gamma                   89.8632

loop_
_atom_site_label
_atom_site_type_symbol
_atom_site_fract_x
_atom_site_fract_y
_atom_site_fract_z
_atom_site_charge
  Si     Si        0.351599999999962    0.244500000000016    0.893900000000031  0.0000
  Si     Si        0.644466785888944    0.229230735736496    0.096645455351588  0.0000
  Ge     Ge        0.639146584696146    0.738318563061045    0.104298258620005  0.0000
  Ge     Ge        0.335393600938027    0.739612785591862    0.892791403013363  0.0000
  Ge     Ge        0.834741610877260    0.746680381113912    0.889112624617738  0.0000
  Ge     Ge        0.135933010452469    0.727977150221369    0.104023751178291  0.0000
  Ge     Ge        0.155538374496254    0.235471553861606    0.104122919012590  0.0000
  Ge     Ge        0.844536195438357    0.240283593907159    0.892329022111478  0.0000
  Ge     Ge        0.317866785433347    0.379299296909872    0.334747812283634  0.0000
  Ge     Ge        0.734347818250003    0.394114493901336    0.681335925913439  0.0000
  Ge     Ge        0.720503266072875    0.594446041371139    0.665106434821132  0.0000
  Ge     Ge        0.314290916695986    0.581935841727496    0.314156810914912  0.0000
  Ge     Ge        0.816970062414201    0.884231644527649    0.327384980382508  0.0000
  Ge     Ge        0.226190796407845    0.897530970966019    0.689568981310660  0.0000
  Ge     Ge        0.219717445422902    0.099261935482453    0.673537927105212  0.0000
  Ge     Ge        0.817185443293449    0.086980180359642    0.304921247156474  0.0000
  Ge     Ge        0.415527877232527    0.389810639238378    0.689229111371340  0.0000
  Ge     Ge        0.633458644287082    0.377111707376036    0.318958433722478  0.0000
  Ge     Ge        0.628021931723514    0.578727626987076    0.300669155144070  0.0000
  Ge     Ge        0.404666715091210    0.592081232696122    0.671116400153462  0.0000
  Ge     Ge        0.907654369051433    0.895364028742387    0.683795573258870  0.0000
  Ge     Ge        0.134272573847547    0.881533194816655    0.325881714973906  0.0000
  Ge     Ge        0.137270438625963    0.082848257358883    0.310367026717058  0.0000
  Ge     Ge        0.898537607673455    0.098149929399399    0.660933779878330  0.0000
  O2     O2        0.478890494413445    0.229741644099049    0.039140065583506  0.0000
  O1     O1        0.463447286293408    0.737201560792157    0.054088018305769  0.0000
  O1     O1        0.960801847872787    0.731368228964726    0.050322162708456  0.0000
  O1     O1        0.980765242494982    0.230728248549792    0.042491999607830  0.0000
  O3     O3        0.340064448270212    0.169701506656675    0.774090245159337  0.0000
  O3     O3        0.692437466689841    0.141756935909344    0.177441894568754  0.0000
  O1     O1        0.690517950268347    0.821651842756782    0.223186302578363  0.0000
  O1     O1        0.343291379521367    0.831259473049969    0.797847530318890  0.0000
  O1     O1        0.834395664692758    0.667451798957253    0.762028117447745  0.0000
  O1     O1        0.185113069479771    0.635081913109176    0.194443365251773  0.0000
  O1     O1        0.191592267942410    0.319381771023655    0.223693942978113  0.0000
  O1     O1        0.852691835613652    0.331533600159393    0.796942526350421  0.0000
  O3     O3        0.361171039099603    0.333672721145433    0.820007368178992  0.0000
  O3     O3        0.695803243924793    0.305075946798538    0.214122868499928  0.0000
  O1     O1        0.692829622725769    0.644409529371927    0.192636063433718  0.0000
  O1     O1        0.333299031518546    0.653804256394988    0.779849259915100  0.0000
  O1     O1        0.844860469354529    0.842088767081198    0.808772782069221  0.0000
  O1     O1        0.199123494178281    0.810176792512651    0.225327660827121  0.0000
  O1     O1        0.207315150212003    0.144168339535079    0.200273545068473  0.0000
  O1     O1        0.823552702507539    0.157862226338406    0.768791161574785  0.0000
  O3     O3        0.215997235625107    0.244699998326106    0.950019847755347  0.0000
  O3     O3        0.698238879892160    0.242321615723397    0.953251944540556  0.0000
  O1     O1        0.685760152849186    0.746694510918045    0.942458397669550  0.0000
  O1     O1        0.184944944948698    0.737011064219791    0.943505006537635  0.0000
  O1     O1        0.459030772942919    0.375553341748737    0.267653906081696  0.0000
  O1     O1        0.589130966084397    0.397295065634849    0.741328907967725  0.0000
  O1     O1        0.579691881845368    0.595319802624630    0.733417500988210  0.0000
  O1     O1        0.452568645727426    0.577770170793955    0.242593743499474  0.0000
  O1     O1        0.959045738600893    0.880232361158005    0.261852043922440  0.0000
  O1     O1        0.081568701649530    0.900168040880150    0.750915996926704  0.0000
  O1     O1        0.073516142643789    0.102708358323568    0.731142665829995  0.0000
  O1     O1        0.962041224982296    0.082093843675285    0.245593430182889  0.0000
  O1     O1        0.361670410073361    0.344217416430062    0.515634866962015  0.0000
  O1     O1        0.693356575659737    0.352849238565550    0.503496722683693  0.0000
  O1     O1        0.671415484809992    0.617941352281377    0.479745215217466  0.0000
  O1     O1        0.357568685860644    0.626125871835158    0.489723216395950  0.0000
  O1     O1        0.861258666068573    0.850453789194906    0.509008621874869  0.0000
  O1     O1        0.180432901203770    0.857379981427086    0.511139260308976  0.0000
  O1     O1        0.179476787449608    0.123646804827997    0.488406374884214  0.0000
  O1     O1        0.854592347052516    0.131969917135844    0.479424120463126  0.0000
  O1     O1        0.262168749817188    0.480939265252354    0.334186103622392  0.0000
  O1     O1        0.792157849573246    0.495397204932471    0.681788997523610  0.0000
  O1     O1        0.760056699469918    0.986545711897247    0.317592805297007  0.0000
  O1     O1        0.285869061696383    0.998747263456479    0.693201026873119  0.0000
  O1     O1        0.351272605811254    0.490102974546324    0.681278718866640  0.0000
  O1     O1        0.686709879720166    0.477691958054552    0.294461942766682  0.0000
  O1     O1        0.845079059576372    0.996277491112062    0.664653165572693  0.0000
  O1     O1        0.193964373294872    0.981341057091248    0.309094537980178  0.0000
