data_c00045.vasp
_audit_creation_method             Generated by GULP
_audit_author_name                 Salvador R. G. Balestra
_symmetry_space_group_name_H-M     'P 1             '
_symmetry_Int_Tables_number        1

loop_
_symmetry_equiv_pos_site_id
_symmetry_equiv_pos_as_xyz
_cell_length_a                       10.2891
_cell_length_b                       15.8571
_cell_length_c                        9.3348
_cell_angle_alpha                   90.0064
_cell_angle_beta                   104.8954
_cell_angle_gamma                   90.0023

loop_
_atom_site_label
_atom_site_type_symbol
_atom_site_fract_x
_atom_site_fract_y
_atom_site_fract_z
_atom_site_charge
  Si     Si        0.403900000000021    0.397900000000050    0.686299999999960  0.0000
  Si     Si        0.903882217686484    0.098289433522319    0.686070502867863  0.0000
  Ge     Ge        0.392291190578171    0.245019686278462    0.894129831215567  0.0000
  Ge     Ge        0.691066225875385    0.247948871025445    0.106844762037961  0.0000
  Ge     Ge        0.690053395907612    0.746104550386742    0.108796923981858  0.0000
  Ge     Ge        0.391155317218058    0.753486646123103    0.897498631129596  0.0000
  Ge     Ge        0.891129676317892    0.742642048963605    0.897465225387214  0.0000
  Ge     Ge        0.190059321477376    0.749740697464901    0.108797907852241  0.0000
  Ge     Ge        0.191053464894593    0.247904301190545    0.106830856460266  0.0000
  Ge     Ge        0.892295434219270    0.251100988535744    0.894164437503733  0.0000
  Ge     Ge        0.306042362713190    0.396984204695995    0.331906766508317  0.0000
  Ge     Ge        0.709616738487782    0.394544873461216    0.672279598402692  0.0000
  Ge     Ge        0.712875046101668    0.599504238584066    0.676176599443909  0.0000
  Ge     Ge        0.304726288803386    0.597756534114060    0.329311176829934  0.0000
  Ge     Ge        0.804827124496495    0.898015855789158    0.329570199683014  0.0000
  Ge     Ge        0.212921031781337    0.896667466788038    0.676446996425013  0.0000
  Ge     Ge        0.209554986268459    0.101627392169580    0.671992723892583  0.0000
  Ge     Ge        0.805953530235619    0.098785860260364    0.331656040811085  0.0000
  Ge     Ge        0.619584258070192    0.394955989481479    0.320451400683753  0.0000
  Ge     Ge        0.618174264097353    0.598367812070588    0.322337199478105  0.0000
  Ge     Ge        0.403488056396404    0.596310819003040    0.692016720654857  0.0000
  Ge     Ge        0.903539039915950    0.899881433705368    0.692285722366010  0.0000
  Ge     Ge        0.118277719176207    0.897451561866771    0.322600717294320  0.0000
  Ge     Ge        0.119463419533199    0.100861198180837    0.320159667063066  0.0000
  O1     O1        0.564217693230680    0.235629981285419    0.948873442850610  0.0000
  O1     O1        0.564163440765310    0.757159224385710    0.950137075595027  0.0000
  O1     O1        0.064141813910237    0.738948338522966    0.950098287885878  0.0000
  O1     O1        0.064222981358650    0.260463592561286    0.948910082658084  0.0000
  O1     O1        0.331582246800203    0.157791171441295    0.791367782243624  0.0000
  O1     O1        0.690908568774906    0.168658384041327    0.233484448824965  0.0000
  O1     O1        0.689827670427613    0.828949871871056    0.228118321152450  0.0000
  O1     O1        0.340682480569988    0.839204438364904    0.785670830153744  0.0000
  O1     O1        0.840623228562267    0.657088961431697    0.785193915636042  0.0000
  O1     O1        0.189680911475030    0.666722107407476    0.227701059693613  0.0000
  O1     O1        0.191045259416011    0.327037038404554    0.233820651969730  0.0000
  O1     O1        0.831577588189648    0.338488461344885    0.791911626255479  0.0000
  O3     O3        0.344756426358990    0.335429828197798    0.788230919742892  0.0000
  O1     O1        0.680629820310167    0.342303724262254    0.192310045099025  0.0000
  O1     O1        0.680693775190480    0.653060316704551    0.198238424765308  0.0000
  O1     O1        0.337820079535032    0.661462654496394    0.800615166986025  0.0000
  O1     O1        0.837913212522774    0.834803638932709    0.801021152593033  0.0000
  O1     O1        0.180954417037325    0.842661356394812    0.198733727318893  0.0000
  O1     O1        0.180380822956425    0.153450302496720    0.191857035956789  0.0000
  O3     O3        0.844645407164984    0.160860049174417    0.787779719547455  0.0000
  O1     O1        0.338739588219006    0.250677254543277    0.052768458326101  0.0000
  O1     O1        0.838759145047679    0.245173306278972    0.052789618882138  0.0000
  O1     O1        0.838804637927367    0.742216818238536    0.056790536332928  0.0000
  O1     O1        0.338829852811105    0.753651231157761    0.056829493082501  0.0000
  O1     O1        0.446909117323703    0.394963990095499    0.265597360009800  0.0000
  O3     O3        0.565866330741453    0.396005115024364    0.737260928892930  0.0000
  O1     O1        0.575736693971839    0.602913488956653    0.749373144609746  0.0000
  O1     O1        0.445635427658094    0.597504353524656    0.262720361527812  0.0000
  O1     O1        0.945731311933276    0.898196341630867    0.262962480116925  0.0000
  O1     O1        0.075786757480439    0.893343934326714    0.749648084671054  0.0000
  O3     O3        0.065852801201775    0.100272395244592    0.737080553415664  0.0000
  O1     O1        0.946792480902026    0.100728740592168    0.265301756131704  0.0000
  O3     O3        0.356459528735524    0.367869667721719    0.516649706060521  0.0000
  O1     O1        0.673905684309807    0.353302678926388    0.496514025581498  0.0000
  O1     O1        0.667442192564740    0.639372080458193    0.498607082974758  0.0000
  O1     O1        0.351234835663768    0.628864195131640    0.511318293578980  0.0000
  O1     O1        0.851326374525891    0.867131513166417    0.511670058305626  0.0000
  O1     O1        0.167532994444173    0.856625239175567    0.498981415625855  0.0000
  O1     O1        0.173755866336242    0.142688991866269    0.496113630306235  0.0000
  O3     O3        0.856453603711888    0.128093846299395    0.516321335928921  0.0000
  O1     O1        0.240642328250999    0.496972779818754    0.317546708094095  0.0000
  O1     O1        0.762981893884121    0.496744810231892    0.668472149762294  0.0000
  O1     O1        0.740636696071799    0.998780559590018    0.317545821099068  0.0000
  O1     O1        0.262949225584218    0.999421628062637    0.668433381603364  0.0000
  O3     O3        0.352487008813965    0.492515958414660    0.701209155961999  0.0000
  O1     O1        0.676469290918413    0.496799335997971    0.329491961240940  0.0000
  O3     O3        0.852524398810681    0.003681777648328    0.701256828668160  0.0000
  O1     O1        0.176461587488137    0.999043237722884    0.329447628823378  0.0000
