data_c00007.vasp
_audit_creation_method             Generated by GULP
_audit_author_name                 Salvador R. G. Balestra
_symmetry_space_group_name_H-M     'P 1             '
_symmetry_Int_Tables_number        1

loop_
_symmetry_equiv_pos_site_id
_symmetry_equiv_pos_as_xyz
_cell_length_a                       10.1838
_cell_length_b                       15.9068
_cell_length_c                        9.3443
_cell_angle_alpha                   90.1680
_cell_angle_beta                   105.5931
_cell_angle_gamma                   90.0278

loop_
_atom_site_label
_atom_site_type_symbol
_atom_site_fract_x
_atom_site_fract_y
_atom_site_fract_z
_atom_site_charge
  Si     Si        0.351599999999962    0.244500000000016    0.893900000000031  0.0000
  Si     Si        0.851175212809523    0.238904684365414    0.893428214701498  0.0000
  Ge     Ge        0.652669052478134    0.234338986869119    0.099698953254333  0.0000
  Ge     Ge        0.646440153430667    0.743873405700991    0.112719516163791  0.0000
  Ge     Ge        0.343803841241750    0.738893197225647    0.898695888404292  0.0000
  Ge     Ge        0.844072533486128    0.744615640160930    0.898960064043028  0.0000
  Ge     Ge        0.146037965075538    0.733271545603995    0.112123040971598  0.0000
  Ge     Ge        0.152957980181729    0.242604943268851    0.100138447808906  0.0000
  Ge     Ge        0.324558953294955    0.384610125617491    0.328968232956206  0.0000
  Ge     Ge        0.735013832485179    0.388675851886791    0.684890380081383  0.0000
  Ge     Ge        0.731900433078873    0.589358971454413    0.683951000327433  0.0000
  Ge     Ge        0.324457789045585    0.588053577501586    0.326991524375220  0.0000
  Ge     Ge        0.825458037967097    0.888114671485538    0.333384505194867  0.0000
  Ge     Ge        0.234113481112335    0.895567261527885    0.689658881672421  0.0000
  Ge     Ge        0.233088573442279    0.096210460398579    0.679426686819424  0.0000
  Ge     Ge        0.823610217832578    0.091447183753262    0.323053799173857  0.0000
  Ge     Ge        0.414716273544244    0.388128555723144    0.683335453977074  0.0000
  Ge     Ge        0.642863072149943    0.385372141421877    0.321853470561944  0.0000
  Ge     Ge        0.640173108974102    0.587177430827172    0.319508584198347  0.0000
  Ge     Ge        0.413555338215568    0.590388019648969    0.682741301225690  0.0000
  Ge     Ge        0.915905781308946    0.893900512104856    0.688878749535515  0.0000
  Ge     Ge        0.141061268933142    0.888453215560583    0.325362212868977  0.0000
  Ge     Ge        0.142098322316123    0.090202529571041    0.316483781495452  0.0000
  Ge     Ge        0.912646346253349    0.096069971806951    0.677432337072657  0.0000
  O3     O3        0.476134734293313    0.236220205327142    0.039861606355472  0.0000
  O1     O1        0.470904691780788    0.741798760839248    0.060931351886496  0.0000
  O1     O1        0.970701540845814    0.735873160546040    0.060927465734040  0.0000
  O3     O3        0.976300588653088    0.241338439272319    0.039526992782264  0.0000
  O3     O3        0.350447779657173    0.166462866124857    0.783300519841362  0.0000
  O1     O1        0.695608239734535    0.144863886799669    0.201698635802710  0.0000
  O1     O1        0.696227868533768    0.830568675826395    0.222592691663713  0.0000
  O1     O1        0.350116533621096    0.826866836767710    0.793700320679003  0.0000
  O1     O1        0.847199907253274    0.660061939244742    0.784599577800399  0.0000
  O1     O1        0.195547006228071    0.643125586099997    0.211204773282881  0.0000
  O1     O1        0.196141588897559    0.328690062566329    0.212205826132587  0.0000
  O3     O3        0.853180341990719    0.320603937642792    0.792477655160429  0.0000
  O3     O3        0.355428434215209    0.331291533482837    0.809403826379670  0.0000
  O1     O1        0.707966770774739    0.319592988444088    0.213129178591520  0.0000
  O1     O1        0.705416796922575    0.654615790650412    0.214212963897908  0.0000
  O1     O1        0.345193223127437    0.649349427240030    0.797096474191366  0.0000
  O1     O1        0.850638315863139    0.837241372892206    0.808395714567369  0.0000
  O1     O1        0.207236764849688    0.819121208898477    0.223571889244824  0.0000
  O1     O1        0.205883473571059    0.153938396809064    0.203992320700991  0.0000
  O3     O3        0.849459983074511    0.155241472510621    0.797815011600869  0.0000
  O3     O3        0.212690522380831    0.243962373862709    0.944829060759454  0.0000
  O3     O3        0.712186822694253    0.238728459122263    0.944312524483544  0.0000
  O1     O1        0.694007134657892    0.745940312809807    0.950888681812814  0.0000
  O1     O1        0.193490632787613    0.737259640576788    0.950184792154109  0.0000
  O1     O1        0.467575518132554    0.381826570392088    0.265113164342744  0.0000
  O1     O1        0.589291871290266    0.392669961484325    0.743075894781787  0.0000
  O1     O1        0.588364882688556    0.590086619498962    0.747872390082748  0.0000
  O1     O1        0.464766725199339    0.587402284191283    0.258267004507941  0.0000
  O1     O1        0.965540081933439    0.886566663981569    0.264160118030467  0.0000
  O1     O1        0.090560274927216    0.896727333480780    0.753360500118912  0.0000
  O1     O1        0.087416866322048    0.094170503158638    0.738016518680315  0.0000
  O1     O1        0.966877098075831    0.092034357624875    0.259689259577168  0.0000
  O1     O1        0.364619631535411    0.345883018374669    0.507921338655156  0.0000
  O1     O1        0.694968732902127    0.354464346802351    0.504238741783462  0.0000
  O1     O1        0.685139688850947    0.619641149718585    0.501270955247788  0.0000
  O1     O1        0.367534393480705    0.628898148666142    0.504234429204232  0.0000
  O1     O1        0.869712089367520    0.851252369595614    0.512922522598798  0.0000
  O1     O1        0.187074453625138    0.860669454825664    0.508956652475905  0.0000
  O1     O1        0.193352627686808    0.125829019847598    0.496792650209070  0.0000
  O1     O1        0.862692704034022    0.134254359525026    0.499496558017713  0.0000
  O1     O1        0.271883910125296    0.486199197232572    0.336957544108364  0.0000
  O1     O1        0.798755780792051    0.489382353211879    0.695952260005474  0.0000
  O1     O1        0.771794111457125    0.990199485420861    0.337021564986161  0.0000
  O1     O1        0.298757606854299    0.995858094173541    0.695963158091260  0.0000
  O1     O1        0.354507751060476    0.488873777776387    0.680344732184748  0.0000
  O1     O1        0.697525237463377    0.486506301290600    0.308324675731557  0.0000
  O1     O1        0.854697465880460    0.995058838052478    0.680134713152497  0.0000
  O1     O1        0.197606156015268    0.988920355027430    0.308569280672545  0.0000
