data_c00002.vasp
_audit_creation_method             Generated by GULP
_audit_author_name                 Salvador R. G. Balestra
_symmetry_space_group_name_H-M     'P 1             '
_symmetry_Int_Tables_number        1

loop_
_symmetry_equiv_pos_site_id
_symmetry_equiv_pos_as_xyz
_cell_length_a                       10.2975
_cell_length_b                       15.9110
_cell_length_c                        9.3163
_cell_angle_alpha                   90.6495
_cell_angle_beta                   105.7023
_cell_angle_gamma                   90.0525

loop_
_atom_site_label
_atom_site_type_symbol
_atom_site_fract_x
_atom_site_fract_y
_atom_site_fract_z
_atom_site_charge
  Ge     Ge        0.351599999999962    0.244500000000016    0.893900000000031  0.0000
  Ge     Ge        0.651397749003689    0.226087802749324    0.102571803151803  0.0000
  Ge     Ge        0.635265590519368    0.743022264087499    0.101651775414299  0.0000
  Ge     Ge        0.332754296014170    0.742220813902941    0.888000966437872  0.0000
  Ge     Ge        0.833744288070915    0.751718714488576    0.888976284780925  0.0000
  Ge     Ge        0.133071363108202    0.724322718048787    0.097495827592058  0.0000
  Ge     Ge        0.146478742877413    0.235675910414984    0.100106240223893  0.0000
  Ge     Ge        0.843085464375543    0.246529691865766    0.884714806471784  0.0000
  Ge     Ge        0.323790523313513    0.376437736727993    0.334473546164359  0.0000
  Ge     Ge        0.733591048294161    0.403328254658270    0.683287365955341  0.0000
  Ge     Ge        0.714327226652469    0.602446358838901    0.658399214255803  0.0000
  Ge     Ge        0.311568535827863    0.579463092596367    0.305162210957769  0.0000
  Ge     Ge        0.815674549728463    0.883735180089282    0.329497849488982  0.0000
  Ge     Ge        0.221947240545074    0.898319646524600    0.682514048423772  0.0000
  Ge     Ge        0.221533624739329    0.099106332819561    0.658152153083897  0.0000
  Ge     Ge        0.419394242033237    0.395814325566761    0.690264578804601  0.0000
  Ge     Ge        0.635668823434181    0.380708946543989    0.319994071917152  0.0000
  Ge     Ge        0.622641676044384    0.582353833730201    0.294120952500616  0.0000
  Ge     Ge        0.401311807336852    0.596721393703284    0.662573000619879  0.0000
  Ge     Ge        0.908034690790452    0.900833493786137    0.687378050914003  0.0000
  Ge     Ge        0.126276672980387    0.876695800286591    0.319742667000172  0.0000
  Ge     Ge        0.130018460784170    0.078286023523731    0.297895281630563  0.0000
  Ge     Ge        0.905252575425167    0.101225213582689    0.655262244376501  0.0000
  Si     Si        0.823628007693706    0.082054656753523    0.306044043489341  0.0000
  O1     O1        0.477845368909545    0.221578806568996    0.050114600959662  0.0000
  O1     O1        0.461337983693040    0.740747076609166    0.048130917351413  0.0000
  O1     O1        0.959784361380722    0.727744209829088    0.044589007652926  0.0000
  O1     O1        0.972625660126554    0.238519115226841    0.042108439221866  0.0000
  O1     O1        0.339407636958821    0.168279564605863    0.758752934577091  0.0000
  O3     O3        0.708556637947566    0.133212632565121    0.191167155320951  0.0000
  O1     O1        0.684433924964128    0.824730136759796    0.226405424646677  0.0000
  O1     O1        0.338609955600092    0.834130174478273    0.793892439661414  0.0000
  O1     O1        0.826024648331907    0.676629057124976    0.752640725558472  0.0000
  O1     O1        0.182557814531248    0.630543819466796    0.183165892791097  0.0000
  O1     O1        0.198717816057986    0.312051709583518    0.233857050227114  0.0000
  O1     O1        0.850448586064537    0.341467642701882    0.799823879924599  0.0000
  O1     O1        0.371082130266027    0.341371368425365    0.824229712239300  0.0000
  O1     O1        0.704066831324813    0.310713535452187    0.220737479707864  0.0000
  O1     O1        0.686673991950334    0.648150950424695    0.186029640588624  0.0000
  O1     O1        0.330044584841223    0.658136804865333    0.770986144629849  0.0000
  O1     O1        0.851934335119199    0.848426610680184    0.818131697715767  0.0000
  O1     O1        0.193619982729955    0.805610669510522    0.222177102353794  0.0000
  O1     O1        0.188339645005308    0.138018538503215    0.177647943791007  0.0000
  O1     O1        0.833603304817645    0.169278279934294    0.752455263653899  0.0000
  O1     O1        0.203772921779352    0.248733571177410    0.946958226785179  0.0000
  O1     O1        0.697052058418373    0.238646553287091    0.940833470412964  0.0000
  O1     O1        0.686870468681051    0.754227784658885    0.943680045760636  0.0000
  O1     O1        0.184121194411192    0.736980302100555    0.938974629791135  0.0000
  O1     O1        0.462080662362702    0.372287675738938    0.264239790485190  0.0000
  O1     O1        0.591245618455172    0.406944946345996    0.745634031148277  0.0000
  O1     O1        0.574477029013948    0.603056194456211    0.726187418696932  0.0000
  O1     O1        0.449220589186122    0.578090383792797    0.234223024286964  0.0000
  O1     O1        0.952280513699841    0.871018505779217    0.259339632774773  0.0000
  O1     O1        0.080820270918625    0.904996439999380    0.746722367472397  0.0000
  O1     O1        0.078333174329986    0.105123815934936    0.719714968556731  0.0000
  O3     O3        0.954659368179966    0.075297476453602    0.244408329729766  0.0000
  O1     O1        0.370560663387159    0.346802401004201    0.518385779705747  0.0000
  O1     O1        0.690322056540733    0.360133383253123    0.506529263765082  0.0000
  O1     O1        0.663827634379045    0.623579511993025    0.472171765367969  0.0000
  O1     O1        0.352285278824717    0.626667366865285    0.478832716324014  0.0000
  O1     O1        0.856070860952649    0.854418724679729    0.513343958416145  0.0000
  O1     O1        0.172978718622928    0.855013809141000    0.506052436829257  0.0000
  O1     O1        0.183611153371918    0.122709537091152    0.472545102827927  0.0000
  O3     O3        0.863868290193751    0.127227386652598    0.467686630872144  0.0000
  O1     O1        0.264902666492064    0.477623835873691    0.325228106984244  0.0000
  O1     O1        0.788925941210925    0.504625320664299    0.679204856570450  0.0000
  O3     O3        0.770461033439488    0.988860565790989    0.324431040528439  0.0000
  O1     O1        0.283492923762892    0.998012612163280    0.677723853622624  0.0000
  O1     O1        0.350701172325724    0.494649916309247    0.674104514814327  0.0000
  O1     O1        0.682899255740116    0.482039622980663    0.291974500135897  0.0000
  O1     O1        0.849042731539076    0.002094386411874    0.676377483236102  0.0000
  O1     O1        0.182474643978833    0.976426608032654    0.296467974123093  0.0000
