data_c00001.vasp
_audit_creation_method             Generated by GULP
_audit_author_name                 Salvador R. G. Balestra
_symmetry_space_group_name_H-M     'P 1             '
_symmetry_Int_Tables_number        1

loop_
_symmetry_equiv_pos_site_id
_symmetry_equiv_pos_as_xyz
_cell_length_a                       10.2792
_cell_length_b                       15.9065
_cell_length_c                        9.3362
_cell_angle_alpha                   89.7182
_cell_angle_beta                   105.2408
_cell_angle_gamma                   89.5427

loop_
_atom_site_label
_atom_site_type_symbol
_atom_site_fract_x
_atom_site_fract_y
_atom_site_fract_z
_atom_site_charge
  Ge     Ge        0.351599999999962    0.244500000000016    0.893900000000031  0.0000
  Ge     Ge        0.653223563885756    0.261051493171744    0.098153392076193  0.0000
  Ge     Ge        0.653254655952173    0.759226451732107    0.102658654704092  0.0000
  Ge     Ge        0.352059460676507    0.757235218711770    0.889578626724215  0.0000
  Ge     Ge        0.852582466727618    0.746631667661727    0.890945512625335  0.0000
  Ge     Ge        0.151532648852503    0.763499941916542    0.100892176063667  0.0000
  Ge     Ge        0.152370267749605    0.259468153885462    0.103072300403006  0.0000
  Ge     Ge        0.854130584303864    0.253386775940114    0.883105924255634  0.0000
  Ge     Ge        0.265691933795861    0.413525656278151    0.310044560835696  0.0000
  Ge     Ge        0.674635091283081    0.396770239197726    0.657240201088713  0.0000
  Ge     Ge        0.677346169141626    0.600085060361187    0.679527228549133  0.0000
  Ge     Ge        0.272485658761438    0.614165531551909    0.328882531489549  0.0000
  Ge     Ge        0.762235945856050    0.914328299216181    0.311987256401764  0.0000
  Ge     Ge        0.171880353381122    0.897860023872360    0.660732634387540  0.0000
  Ge     Ge        0.171745123942770    0.101196674099100    0.679826524408495  0.0000
  Ge     Ge        0.770112830686793    0.113880669921050    0.332112931290254  0.0000
  Ge     Ge        0.363064283967564    0.396843864091517    0.672000743039418  0.0000
  Ge     Ge        0.579530691260882    0.410438850584977    0.302023377676319  0.0000
  Ge     Ge        0.586541904539702    0.612493536113532    0.324122218890333  0.0000
  Ge     Ge        0.364991976777278    0.598496631562760    0.691236960652712  0.0000
  Ge     Ge        0.861269733587820    0.900634366569647    0.674781681499250  0.0000
  Ge     Ge        0.076998849053133    0.911973591894877    0.306927542175615  0.0000
  Ge     Ge        0.085899640255811    0.114315233452767    0.327895220629772  0.0000
  Si     Si        0.863287552749190    0.097926447913386    0.686711699791865  0.0000
  O1     O1        0.524958149413786    0.240636711547992    0.944008516996455  0.0000
  O1     O1        0.525900364062664    0.759154397456375    0.942998707520633  0.0000
  O1     O1        0.026036718502803    0.744852809872677    0.943577469385932  0.0000
  O1     O1        0.027158547101877    0.258566175781162    0.941348278987460  0.0000
  O1     O1        0.292834332633195    0.151882777906441    0.809050001376118  0.0000
  O1     O1        0.658754256938852    0.187292281681722    0.235877405775046  0.0000
  O1     O1        0.646624182452491    0.848691215534790    0.204031293820860  0.0000
  O1     O1        0.300501871947671    0.837529020258637    0.764552005717213  0.0000
  O1     O1        0.802454163031066    0.655333234628584    0.796981143064040  0.0000
  O1     O1        0.157459782349943    0.685541746114207    0.231005704917363  0.0000
  O1     O1        0.146325587114194    0.349487487267734    0.203020122518456  0.0000
  O1     O1        0.800920096362695    0.334499790691150    0.761200976783220  0.0000
  O1     O1        0.296634435039030    0.327185616122094    0.772446548473158  0.0000
  O1     O1        0.637045082304871    0.358058535800755    0.170974447972475  0.0000
  O1     O1        0.655496853677596    0.672520216277553    0.212501969978248  0.0000
  O1     O1        0.302441878849668    0.662499896142436    0.804210882961165  0.0000
  O1     O1        0.794566569737583    0.832754514847417    0.777564522230099  0.0000
  O1     O1        0.134510648714252    0.859336046987240    0.176784390880571  0.0000
  O1     O1        0.152856728327227    0.172933328226346    0.212595949074387  0.0000
  O3     O3        0.806779384058324    0.158192877303846    0.793786943929039  0.0000
  O1     O1        0.302601977419996    0.257993432142026    0.053603551492589  0.0000
  O1     O1        0.798965202611903    0.259457692842934    0.040279847600311  0.0000
  O1     O1        0.802057347315064    0.755513970762951    0.050661086099750  0.0000
  O1     O1        0.299656006661014    0.766517489770853    0.047643280220827  0.0000
  O1     O1        0.406741221407338    0.416402939422613    0.244048048908569  0.0000
  O1     O1        0.536729635095774    0.392239308062613    0.728935384863714  0.0000
  O1     O1        0.538495940823675    0.596826071396486    0.748924270727718  0.0000
  O1     O1        0.413389379861068    0.616190468739486    0.262136652951328  0.0000
  O1     O1        0.904343893057282    0.917586984738020    0.248222004780216  0.0000
  O1     O1        0.034026925642545    0.891611151321742    0.732299750850729  0.0000
  O3     O3        0.025589455619470    0.095901800694196    0.738927078582930  0.0000
  O1     O1        0.912772213942376    0.118240965554626    0.269352265127615  0.0000
  O1     O1        0.313683310899005    0.372869624312172    0.487254192221666  0.0000
  O1     O1        0.629610608057371    0.364362888615980    0.475336094481442  0.0000
  O1     O1        0.634238918312775    0.645440526570984    0.505486046018642  0.0000
  O1     O1        0.318698538774468    0.638679472488431    0.513559420529641  0.0000
  O1     O1        0.807717221781683    0.875824003261250    0.490730962308376  0.0000
  O1     O1        0.126051158967931    0.864748886953774    0.479208315558869  0.0000
  O1     O1        0.138756664612391    0.148885673278777    0.508544350292773  0.0000
  O3     O3        0.817252913575200    0.134908302257880    0.520105301280217  0.0000
  O1     O1        0.205957227651297    0.514420201468601    0.311632522676542  0.0000
  O1     O1        0.729994678784788    0.498575722639090    0.663583542974830  0.0000
  O1     O1        0.700834128881260    0.015370951105437    0.307515493135726  0.0000
  O1     O1        0.224331412448325    0.000043296197050    0.663876060919605  0.0000
  O1     O1        0.308678170948821    0.497559522588208    0.694512081262531  0.0000
  O1     O1        0.641337512482935    0.510764915855753    0.317355568874262  0.0000
  O3     O3        0.809777825429532    0.003782781239641    0.692625424901193  0.0000
  O1     O1        0.139254738377499    0.012179428881002    0.323293645518852  0.0000
