data_c00003.vasp
_audit_creation_method             Generated by GULP
_audit_author_name                 Salvador R. G. Balestra
_symmetry_space_group_name_H-M     'P 1             '
_symmetry_Int_Tables_number        1

loop_
_symmetry_equiv_pos_site_id
_symmetry_equiv_pos_as_xyz
_cell_length_a                       10.2295
_cell_length_b                       15.9318
_cell_length_c                        9.3463
_cell_angle_alpha                   90.6128
_cell_angle_beta                   105.5340
_cell_angle_gamma                   89.6911

loop_
_atom_site_label
_atom_site_type_symbol
_atom_site_fract_x
_atom_site_fract_y
_atom_site_fract_z
_atom_site_charge
  Ge     Ge        0.351599999999962    0.244500000000016    0.893900000000031  0.0000
  Ge     Ge        0.658619213303304    0.242300111574889    0.104740920872824  0.0000
  Ge     Ge        0.661559330325797    0.736820884313947    0.112083897255398  0.0000
  Ge     Ge        0.360631702757712    0.754251039746822    0.898874043834016  0.0000
  Ge     Ge        0.857517885901976    0.743553076306488    0.896809297998840  0.0000
  Ge     Ge        0.160239197438281    0.742223803325737    0.108708759115290  0.0000
  Ge     Ge        0.148199726805900    0.237721822866306    0.104720626838231  0.0000
  Ge     Ge        0.278134208928709    0.386011668268313    0.330252126069874  0.0000
  Ge     Ge        0.681370370143229    0.395920719956737    0.689811724345144  0.0000
  Ge     Ge        0.681586807570333    0.598076347132869    0.673288486780070  0.0000
  Ge     Ge        0.273329565006487    0.587358802967804    0.315944949521170  0.0000
  Ge     Ge        0.774935373249594    0.888551407886114    0.335957218809517  0.0000
  Ge     Ge        0.181776495379825    0.899226896054715    0.687894229737185  0.0000
  Ge     Ge        0.178830034863538    0.101743785742538    0.666799573439729  0.0000
  Ge     Ge        0.765885661715929    0.088434170248597    0.319053982446422  0.0000
  Ge     Ge        0.364432624481714    0.400216476222737    0.691986147594228  0.0000
  Ge     Ge        0.596506934396402    0.385348887416246    0.333815484263410  0.0000
  Ge     Ge        0.589976147300538    0.588086801559813    0.317268143668652  0.0000
  Ge     Ge        0.365762478107484    0.600950756906328    0.678169076741855  0.0000
  Ge     Ge        0.868109573001238    0.902821603568267    0.700092494134223  0.0000
  Ge     Ge        0.091121440237088    0.887677662223325    0.333034696347006  0.0000
  Ge     Ge        0.082942095457585    0.089255294806927    0.313441092523756  0.0000
  Ge     Ge        0.864852369890400    0.103949769657113    0.682145574459400  0.0000
  Si     Si        0.854057427345936    0.253379991057948    0.897463873369217  0.0000
  O1     O1        0.526415738978377    0.245942581396613    0.949841256079632  0.0000
  O1     O1        0.535123591156938    0.751802699565022    0.952257810372820  0.0000
  O1     O1        0.032658507292498    0.743457752280587    0.948156842802554  0.0000
  O3     O3        0.017418807882405    0.253029758372110    0.946187788138980  0.0000
  O1     O1        0.306268111796716    0.161768935192840    0.772982606634629  0.0000
  O1     O1        0.651034949144649    0.153257801180441    0.205180731226006  0.0000
  O1     O1        0.661542893891981    0.816374080260328    0.238157936610898  0.0000
  O1     O1        0.310365406061410    0.846442433556543    0.807799699205143  0.0000
  O1     O1        0.806881046145162    0.660397836519374    0.778236584073426  0.0000
  O1     O1        0.154762898770678    0.651975545679774    0.206910891365563  0.0000
  O1     O1        0.157778237535206    0.318027902037848    0.230774530093172  0.0000
  O3     O3        0.804159165562861    0.339932661995038    0.815370112701146  0.0000
  O1     O1        0.299156191527081    0.337261681324023    0.802611134061157  0.0000
  O1     O1        0.669053497810311    0.326827779139540    0.221877273266250  0.0000
  O1     O1        0.652266158214005    0.641946877948566    0.193099588688867  0.0000
  O1     O1        0.300354933147267    0.671285533925652    0.779669810117585  0.0000
  O1     O1        0.804389437419850    0.837154025749259    0.808338225226124  0.0000
  O1     O1        0.161111602592195    0.827846992805294    0.221037134873859  0.0000
  O1     O1        0.139801484556093    0.142832953567120    0.184751040364452  0.0000
  O3     O3        0.799951755638187    0.175820639278799    0.784976198374053  0.0000
  O1     O1        0.295130864515084    0.236188406934146    0.048565319417557  0.0000
  O3     O3        0.806716071881928    0.242818905394496    0.046627291262147  0.0000
  O1     O1        0.809727023794904    0.736237754058482    0.057850344015637  0.0000
  O1     O1        0.310343292557234    0.745485905060751    0.058304618020216  0.0000
  O1     O1        0.422217025192883    0.381040991455089    0.268312672895386  0.0000
  O1     O1        0.538991023054067    0.402015954877269    0.752635927168172  0.0000
  O1     O1        0.540410788320821    0.602064023142900    0.739880143118266  0.0000
  O1     O1        0.416444565831632    0.584669969351110    0.252615460714702  0.0000
  O1     O1        0.916895122378525    0.886011673537705    0.270328298086723  0.0000
  O1     O1        0.042723792059855    0.902977082470114    0.757799634256167  0.0000
  O1     O1        0.039017844081778    0.105658943953812    0.736209338104095  0.0000
  O1     O1        0.909395397719267    0.084394850469977    0.257290767351050  0.0000
  O1     O1        0.321706438882903    0.360007912877316    0.514297916603597  0.0000
  O1     O1        0.643578358141808    0.351636324756533    0.515129231377430  0.0000
  O1     O1        0.637483917029179    0.631996026575456    0.492242155067664  0.0000
  O1     O1        0.319191008026551    0.626979867021321    0.494089912224000  0.0000
  O1     O1        0.821840003238226    0.864865604732772    0.520811019547655  0.0000
  O1     O1        0.138615520461478    0.853592288508449    0.513754282905651  0.0000
  O1     O1        0.132992062627155    0.136033695299466    0.486243827405789  0.0000
  O1     O1        0.808300203627283    0.127892487694201    0.497692122461888  0.0000
  O1     O1        0.214331918336359    0.486743042811850    0.314410328199166  0.0000
  O1     O1        0.738764581977132    0.496174821869428    0.679356869613509  0.0000
  O1     O1        0.705592248919864    0.988017324769351    0.317552506748570  0.0000
  O1     O1        0.233559302533054    0.999828370583619    0.668856595057870  0.0000
  O1     O1        0.306893729802670    0.501334916002254    0.694729738994897  0.0000
  O1     O1        0.650119709518737    0.486931071314205    0.331334327369595  0.0000
  O1     O1        0.811248449959172    0.004060073013646    0.707146539125067  0.0000
  O1     O1        0.146131431710581    0.989002559554025    0.327166511121185  0.0000
