data_image0
_chemical_formula_structural       Ge2Si22O48
_chemical_formula_sum              "Ge2 Si22 O48"
_cell_length_a       10.736432412743227
_cell_length_b       15.602496423056557
_cell_length_c       9.219476894837197
_cell_angle_alpha    89.91303851091575
_cell_angle_beta     105.60391170847811
_cell_angle_gamma    90.12724515967945

_space_group_name_H-M_alt    "P 1"
_space_group_IT_number       1

loop_
  _space_group_symop_operation_xyz
  'x, y, z'

loop_
  _atom_site_type_symbol
  _atom_site_label
  _atom_site_symmetry_multiplicity
  _atom_site_fract_x
  _atom_site_fract_y
  _atom_site_fract_z
  _atom_site_occupancy
  Ge  Ge1       1.0  0.2896878155139821  0.3783011426530347  0.3160380429869921  1.0000
  Ge  Ge2       1.0  0.5956852262452234  0.3762512893074604  0.29455838758233616  1.0000
  Si  Si1       1.0  0.3334365333866588  0.22785850272324182  0.8851991014435262  1.0000
  Si  Si2       1.0  0.6292194805760905  0.2194149578004392  0.08555017455627954  1.0000
  Si  Si3       1.0  0.6449466856267863  0.7377861927972278  0.08982274416872453  1.0000
  Si  Si4       1.0  0.3492053272053765  0.7391198584625891  0.878376754457035  1.0000
  Si  Si5       1.0  0.8497935172479885  0.7252372927123752  0.8787195589444896  1.0000
  Si  Si6       1.0  0.14552661575378092  0.7286180519630203  0.09123896173359865  1.0000
  Si  Si7       1.0  0.12573402844290782  0.2353228059612935  0.08904164902453938  1.0000
  Si  Si8       1.0  0.8296599829965484  0.23132902069676123  0.8771063498891597  1.0000
  Si  Si9       1.0  0.6916145680032546  0.3790275446700923  0.6607662816453445  1.0000
  Si  Si10      1.0  0.692653716556265  0.5834378122780406  0.6563876691689663  1.0000
  Si  Si11      1.0  0.2990861482059041  0.5870796033671837  0.31710534567934556  1.0000
  Si  Si12      1.0  0.8015578258593222  0.877713976476821  0.3148547275747525  1.0000
  Si  Si13      1.0  0.19292464873342377  0.8810778992628905  0.6549480509673673  1.0000
  Si  Si14      1.0  0.1892388122958461  0.0851853205392437  0.6562038491364819  1.0000
  Si  Si15      1.0  0.7985829818087571  0.08234303183160076  0.3105383431058652  1.0000
  Si  Si16      1.0  0.39529166685633915  0.3801955414288233  0.6815357325050652  1.0000
  Si  Si17      1.0  0.5937539519216346  0.5849081943847786  0.2964898424714968  1.0000
  Si  Si18      1.0  0.39875946358252  0.5844877503682634  0.6765925871435823  1.0000
  Si  Si19      1.0  0.8978052285841108  0.8787313258490748  0.6726591115875764  1.0000
  Si  Si20      1.0  0.09492369816167179  0.8798606232109821  0.296682639870611  1.0000
  Si  Si21      1.0  0.09295011990640055  0.08416269028905579  0.2970650356382598  1.0000
  Si  Si22      1.0  0.8935884706189527  0.08240281872804091  0.6690110455006335  1.0000
  O   O1        1.0  0.4710821113182995  0.2033815107464179  0.012658579271608437  1.0000
  O   O2        1.0  0.49824527944645075  0.7606315640855026  0.9817707548810739  1.0000
  O   O3        1.0  0.9986001642313527  0.7047303531106925  0.9840403233729421  1.0000
  O   O4        1.0  0.9684710194506634  0.2462707678316332  0.0072569788664151634  1.0000
  O   O5        1.0  0.3047898521753481  0.14858992224887208  0.7578822355844942  1.0000
  O   O6        1.0  0.6756567115079727  0.13936983128607533  0.20852899798945307  1.0000
  O   O7        1.0  0.6812234947073129  0.8182494861102093  0.21340731325580095  1.0000
  O   O8        1.0  0.3118507050209092  0.8202209637277843  0.7556710441413637  1.0000
  O   O9        1.0  0.8126250933093274  0.6442838492421356  0.7557051537162016  1.0000
  O   O10       1.0  0.18259399159648534  0.650768887765292  0.22023729988998653  1.0000
  O   O11       1.0  0.15632844613972344  0.3184585436959134  0.20896535437106376  1.0000
  O   O12       1.0  0.8083069710280515  0.3189679486097943  0.7682608957661339  1.0000
  O   O13       1.0  0.34209804452999765  0.3230133262344354  0.8046469091197972  1.0000
  O   O14       1.0  0.6618829259154874  0.31564030984235625  0.1708281496914897  1.0000
  O   O15       1.0  0.6523198494300991  0.6444187794054077  0.1806822437790146  1.0000
  O   O16       1.0  0.3394254848100878  0.6445097508411548  0.7909056322832393  1.0000
  O   O17       1.0  0.8398255229748317  0.8195410686930986  0.7897514141046793  1.0000
  O   O18       1.0  0.1536734049076273  0.8237177715942965  0.1769831587876221  1.0000
  O   O19       1.0  0.1558460323799295  0.14182443406415987  0.1817649517974773  1.0000
  O   O20       1.0  0.8294010844392558  0.1413353772818329  0.779645484877663  1.0000
  O   O21       1.0  0.21169468622952164  0.23727078810144292  0.9639795071090057  1.0000
  O   O22       1.0  0.7057932956516237  0.21779674944027944  0.9513672022397892  1.0000
  O   O23       1.0  0.7485084822864401  0.7303533565383297  0.985864621605006  1.0000
  O   O24       1.0  0.24900323778473282  0.733191733418918  0.9867959611185801  1.0000
  O   O25       1.0  0.4285085666471106  0.3481837407919835  0.2562517244853849  1.0000
  O   O26       1.0  0.5517426946506196  0.35913099344156374  0.7019251889179464  1.0000
  O   O27       1.0  0.556897656052257  0.6050979701698966  0.706134510716946  1.0000
  O   O28       1.0  0.4359359022422159  0.6052192452188083  0.2677477320229769  1.0000
  O   O29       1.0  0.9383432849023722  0.8549717863505049  0.2683828370145769  1.0000
  O   O30       1.0  0.055979854390046685  0.8588589487837077  0.7020328832426413  1.0000
  O   O31       1.0  0.05141887682804368  0.10464753153456342  0.702685703415751  1.0000
  O   O32       1.0  0.9348593184654299  0.10657176273262298  0.2634276243292017  1.0000
  O   O33       1.0  0.30521993379254514  0.3528119869824915  0.5085978866410653  1.0000
  O   O34       1.0  0.6841222255878666  0.35113124232039217  0.4825057318958666  1.0000
  O   O35       1.0  0.6755665845325953  0.6062868411706182  0.47443993820951713  1.0000
  O   O36       1.0  0.3175222387454633  0.6082404422967603  0.4994538968210277  1.0000
  O   O37       1.0  0.8158493638314929  0.8543658827673777  0.49591831695991284  1.0000
  O   O38       1.0  0.17865836652520345  0.8576417122525789  0.4737877288230521  1.0000
  O   O39       1.0  0.17354627502412015  0.10791968023997549  0.4745229473207521  1.0000
  O   O40       1.0  0.813358299675611  0.10568067102171183  0.49139763059719477  1.0000
  O   O41       1.0  0.24433701856077367  0.4870510252759688  0.2736731110359414  1.0000
  O   O42       1.0  0.7371767854120848  0.48127596373283255  0.6942129693763471  1.0000
  O   O43       1.0  0.757769472161569  0.9795629555080242  0.274805752306299  1.0000
  O   O44       1.0  0.23699047698561698  0.9834273362276216  0.6935887558263999  1.0000
  O   O45       1.0  0.37337909566137567  0.48292376902063583  0.7198723196836234  1.0000
  O   O46       1.0  0.6196124794285411  0.48444765743646806  0.24691944028198684  1.0000
  O   O47       1.0  0.8714747603975072  0.9804490808248828  0.7129803721974219  1.0000
  O   O48       1.0  0.11515942237111584  0.9822575067674126  0.2547237566818524  1.0000
