data_image0
_chemical_formula_structural       Ge2Si22O48
_chemical_formula_sum              "Ge2 Si22 O48"
_cell_length_a       10.670438915635163
_cell_length_b       15.621832181155652
_cell_length_c       9.194606936602007
_cell_angle_alpha    90.10715937181263
_cell_angle_beta     105.50631577345976
_cell_angle_gamma    90.08258453008591

_space_group_name_H-M_alt    "P 1"
_space_group_IT_number       1

loop_
  _space_group_symop_operation_xyz
  'x, y, z'

loop_
  _atom_site_type_symbol
  _atom_site_label
  _atom_site_symmetry_multiplicity
  _atom_site_fract_x
  _atom_site_fract_y
  _atom_site_fract_z
  _atom_site_occupancy
  Ge  Ge1       1.0  0.28343645443682275  0.37903724852165754  0.3224221445986747  1.0000
  Ge  Ge2       1.0  0.783448665526094  0.8790097636538531  0.3226860396385516  1.0000
  Si  Si1       1.0  0.3479123883654636  0.22673375400188728  0.8901183768632134  1.0000
  Si  Si2       1.0  0.6446447815171232  0.22970233045830415  0.09738234751489717  1.0000
  Si  Si3       1.0  0.6393796496672752  0.7327243865110529  0.09361442208848202  1.0000
  Si  Si4       1.0  0.3447339199018581  0.739733825140159  0.8837862574103813  1.0000
  Si  Si5       1.0  0.8474464562918455  0.7268764323560476  0.8900812216133839  1.0000
  Si  Si6       1.0  0.14411518875502619  0.7296545056676095  0.09755928912827197  1.0000
  Si  Si7       1.0  0.1398296215458623  0.2326857809482352  0.09336680775822652  1.0000
  Si  Si8       1.0  0.8451906951647684  0.2398713386109274  0.8837305467624179  1.0000
  Si  Si9       1.0  0.6812000980930337  0.38256564491179806  0.6646044396511194  1.0000
  Si  Si10      1.0  0.6798921773264305  0.5875206954999103  0.6621944776820634  1.0000
  Si  Si11      1.0  0.28450597629051116  0.58543006519624  0.31991414660553297  1.0000
  Si  Si12      1.0  0.18106276822450532  0.8824450856942453  0.6645425639428552  1.0000
  Si  Si13      1.0  0.18002885579713349  0.08742679441493226  0.6622564006146393  1.0000
  Si  Si14      1.0  0.7846402624126677  0.0854475357323365  0.31988209220557545  1.0000
  Si  Si15      1.0  0.3854099092138065  0.38223027453631575  0.6895242745710899  1.0000
  Si  Si16      1.0  0.5869903780848462  0.3792776198224814  0.3059000720497242  1.0000
  Si  Si17      1.0  0.5819983559208866  0.58381713932384  0.303771288102485  1.0000
  Si  Si18      1.0  0.38377231595889544  0.5853426682513504  0.6813995745287794  1.0000
  Si  Si19      1.0  0.885478426236199  0.8823688932952057  0.6897409039566214  1.0000
  Si  Si20      1.0  0.08680216631407839  0.8793296811324307  0.30589080327922347  1.0000
  Si  Si21      1.0  0.08221437855363425  0.08392993342224542  0.3039707491291359  1.0000
  Si  Si22      1.0  0.8837127651335382  0.08546860388555669  0.6811318939830441  1.0000
  O   O1        1.0  0.5052047263816138  0.20829550600012248  0.9695528620958939  1.0000
  O   O2        1.0  0.5036695411930038  0.7533138365010122  0.9600378939625471  1.0000
  O   O3        1.0  0.004489858849312094  0.7080187921644897  0.9702319410041521  1.0000
  O   O4        1.0  0.004345366180746636  0.2530682700858906  0.9592029391056318  1.0000
  O   O5        1.0  0.29980558601797974  0.1483156851306362  0.7633218477217785  1.0000
  O   O6        1.0  0.6685521422529502  0.14967256238771573  0.22245940878504497  1.0000
  O   O7        1.0  0.655132462283704  0.8132632590764035  0.21871917161455876  1.0000
  O   O8        1.0  0.30106699182629154  0.8236839520723447  0.7692609290758874  1.0000
  O   O9        1.0  0.79952766687667  0.6486696638870998  0.7628142756368158  1.0000
  O   O10       1.0  0.16837592854497746  0.6497469499752554  0.22287531392979484  1.0000
  O   O11       1.0  0.1550989751845285  0.31350223099446817  0.21787661001276862  1.0000
  O   O12       1.0  0.8012958786395721  0.32396284346246573  0.7695972972735026  1.0000
  O   O13       1.0  0.32839301168545054  0.3236386044608121  0.8088860695224759  1.0000
  O   O14       1.0  0.6472107279247836  0.32338285881564605  0.1864700303319053  1.0000
  O   O15       1.0  0.6378559895460257  0.638934077407359  0.1800862523991988  1.0000
  O   O16       1.0  0.3180506920317954  0.6465920416220228  0.7897026354032606  1.0000
  O   O17       1.0  0.8285432704169753  0.8238968302444639  0.8093009487560904  1.0000
  O   O18       1.0  0.14695964039877268  0.8234616661571003  0.1863633939299605  1.0000
  O   O19       1.0  0.13803936351411558  0.1390619447264121  0.18027366675278964  1.0000
  O   O20       1.0  0.8179862551780087  0.14684134231894336  0.7892719980624554  1.0000
  O   O21       1.0  0.26646453739294135  0.226453895792139  0.02071558429140153  1.0000
  O   O22       1.0  0.7664137688212337  0.2359727629353925  0.01664143467865559  1.0000
  O   O23       1.0  0.7655206656161774  0.7266309202033666  0.02016576092472746  1.0000
  O   O24       1.0  0.2654380348853733  0.7358518592405507  0.01616031916825853  1.0000
  O   O25       1.0  0.4291203529722683  0.3529852826042267  0.27243033408324835  1.0000
  O   O26       1.0  0.5429982865709946  0.36041882742914055  0.710819801154012  1.0000
  O   O27       1.0  0.541969011816927  0.6089809054680999  0.709871875178503  1.0000
  O   O28       1.0  0.423484862813427  0.6047518659429977  0.27434860090967933  1.0000
  O   O29       1.0  0.929297377359076  0.8523512844983286  0.27354339139678757  1.0000
  O   O30       1.0  0.04266809350325118  0.8597971449530073  0.7099487190007525  1.0000
  O   O31       1.0  0.04164965641725756  0.10958397670534274  0.7084658730849617  1.0000
  O   O32       1.0  0.9240834562889584  0.10564444836367985  0.27595496490433785  1.0000
  O   O33       1.0  0.29479250205026936  0.35703185168425267  0.5155507181908923  1.0000
  O   O34       1.0  0.668377977500107  0.3566616492342193  0.4840684090335094  1.0000
  O   O35       1.0  0.6645317015646097  0.6103371020486601  0.48003898784697474  1.0000
  O   O36       1.0  0.3001917214812109  0.604041754878673  0.502942535978588  1.0000
  O   O37       1.0  0.7939783274857384  0.8577392538000889  0.5158663488602405  1.0000
  O   O38       1.0  0.16908886279322155  0.8572031165542356  0.48393439883668254  1.0000
  O   O39       1.0  0.16593591217771173  0.10977929160849893  0.48015542545226  1.0000
  O   O40       1.0  0.7990335841588265  0.10342892651809324  0.5028328488614253  1.0000
  O   O41       1.0  0.23039358530421966  0.4855872188905276  0.2719585081059687  1.0000
  O   O42       1.0  0.7239855317806252  0.48528063362697826  0.6992538469662364  1.0000
  O   O43       1.0  0.731328458890975  0.9855661781346001  0.2707444554764216  1.0000
  O   O44       1.0  0.22332402803751308  0.9851476344485945  0.7003268220083473  1.0000
  O   O45       1.0  0.3645674264392542  0.4843982887850837  0.7324578004701415  1.0000
  O   O46       1.0  0.6070519522073164  0.48167518554332156  0.265588222457519  1.0000
  O   O47       1.0  0.865782897532233  0.9845716335855369  0.7333536560097588  1.0000
  O   O48       1.0  0.10568621874585166  0.9817268131889758  0.2646255405900434  1.0000
