data_image0
_chemical_formula_structural       Ge2Si22O48
_chemical_formula_sum              "Ge2 Si22 O48"
_cell_length_a       10.734199773007008
_cell_length_b       15.584418649964498
_cell_length_c       9.20349210698987
_cell_angle_alpha    89.99751059935816
_cell_angle_beta     105.58680603556525
_cell_angle_gamma    89.97792614655239

_space_group_name_H-M_alt    "P 1"
_space_group_IT_number       1

loop_
  _space_group_symop_operation_xyz
  'x, y, z'

loop_
  _atom_site_type_symbol
  _atom_site_label
  _atom_site_symmetry_multiplicity
  _atom_site_fract_x
  _atom_site_fract_y
  _atom_site_fract_z
  _atom_site_occupancy
  Ge  Ge1       1.0  0.3487737771135249  0.22657259528257517  0.8894875532884344  1.0000
  Ge  Ge2       1.0  0.8488838566158103  0.24195728864640664  0.8895751991986693  1.0000
  Si  Si1       1.0  0.6449918208236478  0.23104452115160068  0.10212888166847951  1.0000
  Si  Si2       1.0  0.6326103850400211  0.7388145489750836  0.09366615161960518  1.0000
  Si  Si3       1.0  0.33699779617489767  0.7411192699781441  0.8847524540777092  1.0000
  Si  Si4       1.0  0.8370525757116758  0.7273624722636928  0.8845669619614865  1.0000
  Si  Si5       1.0  0.13255299411166774  0.729685335830473  0.0937569080326643  1.0000
  Si  Si6       1.0  0.14501782254733667  0.2375506558264033  0.10220829982115087  1.0000
  Si  Si7       1.0  0.28027292622202077  0.3835468421479367  0.32207199204046816  1.0000
  Si  Si8       1.0  0.6722015716656325  0.38371719563170203  0.6610118452788537  1.0000
  Si  Si9       1.0  0.6709027814043237  0.5897129247738964  0.6583506440548477  1.0000
  Si  Si10      1.0  0.278648296228196  0.5867648609168389  0.3191912629695145  1.0000
  Si  Si11      1.0  0.7787411316158838  0.8817623822613927  0.3191257641837736  1.0000
  Si  Si12      1.0  0.17089172783564946  0.8788225791477927  0.6582230364081803  1.0000
  Si  Si13      1.0  0.17200660834926754  0.08491200647310855  0.6608398164824227  1.0000
  Si  Si14      1.0  0.7800727318296078  0.08508001450548745  0.32206051419636594  1.0000
  Si  Si15      1.0  0.3806791036084258  0.38443947872977513  0.6818150430836953  1.0000
  Si  Si16      1.0  0.574568831033682  0.38336094582453156  0.3028432651488933  1.0000
  Si  Si17      1.0  0.5739449208599896  0.5873337380005885  0.3006820789989829  1.0000
  Si  Si18      1.0  0.3784232686444966  0.5889760541560678  0.678549376106098  1.0000
  Si  Si19      1.0  0.8783482704517813  0.8795334545921635  0.6783500102340708  1.0000
  Si  Si20      1.0  0.07411581234628432  0.8811999193934543  0.3006411810733028  1.0000
  Si  Si21      1.0  0.07434101590029646  0.08523228009044644  0.3027563661242386  1.0000
  Si  Si22      1.0  0.8805219162535807  0.08413136806872398  0.681757225582442  1.0000
  O   O1        1.0  0.5179055141650514  0.20793089125338762  0.9572311832858288  1.0000
  O   O2        1.0  0.49214499027274233  0.7604838071553541  0.9695070297646204  1.0000
  O   O3        1.0  0.992194534412796  0.7079493038597412  0.9694937632722409  1.0000
  O   O4        1.0  0.017914741389999104  0.26083339993255905  0.9573966943409737  1.0000
  O   O5        1.0  0.29861530871511605  0.13996280103045022  0.7614970208993179  1.0000
  O   O6        1.0  0.6634290985592893  0.14932692722220584  0.22438259803935046  1.0000
  O   O7        1.0  0.6609875911615203  0.8201874581368817  0.21700065430426677  1.0000
  O   O8        1.0  0.29315656889926694  0.8215264242734177  0.7615181897960868  1.0000
  O   O9        1.0  0.793248001339837  0.6471637530258213  0.7609389511788771  1.0000
  O   O10       1.0  0.16080688372962623  0.6485270558470166  0.21756509339140848  1.0000
  O   O11       1.0  0.16376738375007766  0.31925269397388234  0.22447604205885593  1.0000
  O   O12       1.0  0.798863142805731  0.32866770997607553  0.7617224719688117  1.0000
  O   O13       1.0  0.3161362797448977  0.32818692626360674  0.7980785470605308  1.0000
  O   O14       1.0  0.6314124432122398  0.3244092373147685  0.18508466806828883  1.0000
  O   O15       1.0  0.6308815731612067  0.6450303202680645  0.18117032790476775  1.0000
  O   O16       1.0  0.31669191440018607  0.6465257571602321  0.7947956098794988  1.0000
  O   O17       1.0  0.8169110578827188  0.8220946952610032  0.7949763045790517  1.0000
  O   O18       1.0  0.13088373191995464  0.823659966819856  0.18074649577707205  1.0000
  O   O19       1.0  0.1310979117498595  0.144171080147902  0.18492739451310397  1.0000
  O   O20       1.0  0.8162134590439534  0.1403250167586262  0.7983268027311353  1.0000
  O   O21       1.0  0.27814417778006006  0.225304112725269  0.04284471946486268  1.0000
  O   O22       1.0  0.7781743226368063  0.24315491832916683  0.0428644916699455  1.0000
  O   O23       1.0  0.7511801399200507  0.7299753522431607  0.009825517422492531  1.0000
  O   O24       1.0  0.25135956323058206  0.7381783973157998  0.010230426134313571  1.0000
  O   O25       1.0  0.4158316735908147  0.3652918171472284  0.2700028021575951  1.0000
  O   O26       1.0  0.5385263050752416  0.3607879791651469  0.7149505607117693  1.0000
  O   O27       1.0  0.5357335929061057  0.6127520284863425  0.7088931644670572  1.0000
  O   O28       1.0  0.4151310072039801  0.6055404563726376  0.26916659925473546  1.0000
  O   O29       1.0  0.9154380103099259  0.862749208100041  0.26968762327789125  1.0000
  O   O30       1.0  0.03550999407807698  0.8554290755938533  0.7079746733826294  1.0000
  O   O31       1.0  0.03822796948180228  0.10800529514389713  0.7144722929790108  1.0000
  O   O32       1.0  0.9156939982762156  0.10364800298753488  0.2703144376815477  1.0000
  O   O33       1.0  0.3000564412731502  0.3603600850481405  0.5044296038033653  1.0000
  O   O34       1.0  0.6534364967545464  0.357105242454457  0.4801050444863337  1.0000
  O   O35       1.0  0.6539154097823561  0.6148848973515413  0.4770581805473142  1.0000
  O   O36       1.0  0.29611834991569075  0.6113501569262193  0.5008059615988437  1.0000
  O   O37       1.0  0.7956665061794279  0.8572446941437215  0.5007009153716316  1.0000
  O   O38       1.0  0.1545882482781027  0.8537814542849376  0.47696932371375245  1.0000
  O   O39       1.0  0.15352485953441347  0.11140433937281427  0.4799264678791636  1.0000
  O   O40       1.0  0.7994532098165533  0.1080552110295388  0.5044341666559296  1.0000
  O   O41       1.0  0.22994392443187306  0.4848692100470951  0.2843096297675202  1.0000
  O   O42       1.0  0.7127556937569359  0.4868920087001164  0.6920542888853883  1.0000
  O   O43       1.0  0.730237820592874  0.983713741545474  0.2840259220801383  1.0000
  O   O44       1.0  0.2122762911621884  0.9816833028569852  0.692019998344674  1.0000
  O   O45       1.0  0.3583745950925253  0.4867744167038086  0.7225315430879204  1.0000
  O   O46       1.0  0.6031912240954599  0.48521962491678705  0.2644809990513809  1.0000
  O   O47       1.0  0.8585981372078595  0.9817557299144141  0.7225330610159358  1.0000
  O   O48       1.0  0.10266903368181694  0.9833651490055855  0.26409103033098674  1.0000
