data_image0
_chemical_formula_structural       Ge2Si22O48
_chemical_formula_sum              "Ge2 Si22 O48"
_cell_length_a       10.755838853180467
_cell_length_b       15.584120772443564
_cell_length_c       9.198738057097815
_cell_angle_alpha    90.04844172356792
_cell_angle_beta     105.5251430630899
_cell_angle_gamma    89.79058262551989

_space_group_name_H-M_alt    "P 1"
_space_group_IT_number       1

loop_
  _space_group_symop_operation_xyz
  'x, y, z'

loop_
  _atom_site_type_symbol
  _atom_site_label
  _atom_site_symmetry_multiplicity
  _atom_site_fract_x
  _atom_site_fract_y
  _atom_site_fract_z
  _atom_site_occupancy
  Ge  Ge1       1.0  0.34761932763538894  0.22898852599032954  0.8896254326631515  1.0000
  Ge  Ge2       1.0  0.17361941749903956  0.08492573433667208  0.6597198757541397  1.0000
  Si  Si1       1.0  0.647769925640678  0.23454699387234412  0.10250216149070152  1.0000
  Si  Si2       1.0  0.619567685720357  0.7419915740407694  0.09720406483054003  1.0000
  Si  Si3       1.0  0.32492995545703673  0.7377617061767162  0.8856077770371432  1.0000
  Si  Si4       1.0  0.8236537998683803  0.7298329156392663  0.8845007186740187  1.0000
  Si  Si5       1.0  0.1185778675224709  0.7274729183103706  0.09498456006531937  1.0000
  Si  Si6       1.0  0.13399998914173195  0.23919023383639185  0.09423715427811588  1.0000
  Si  Si7       1.0  0.8434819371710317  0.24423771008687978  0.8889992028584071  1.0000
  Si  Si8       1.0  0.28010054350584157  0.38169187669650223  0.3178237100385581  1.0000
  Si  Si9       1.0  0.6703346732906488  0.383276583945452  0.664038683033953  1.0000
  Si  Si10      1.0  0.6677501376317992  0.5882030631802992  0.6601795236369553  1.0000
  Si  Si11      1.0  0.2758494593536617  0.5870804419382287  0.3202062655783695  1.0000
  Si  Si12      1.0  0.7722915408392448  0.8845679756576024  0.32079961030938703  1.0000
  Si  Si13      1.0  0.16559305580948344  0.8760158497460602  0.6567527011603809  1.0000
  Si  Si14      1.0  0.777129721515697  0.08718401896067808  0.3251282632194452  1.0000
  Si  Si15      1.0  0.3766218021529564  0.38320663773294916  0.676773320728629  1.0000
  Si  Si16      1.0  0.5740703097397964  0.38393349573009  0.3033931821308062  1.0000
  Si  Si17      1.0  0.5695327744964842  0.5883630292471937  0.30157318987849663  1.0000
  Si  Si18      1.0  0.37456278302200446  0.5877586524192526  0.6779858771860161  1.0000
  Si  Si19      1.0  0.8742007681784614  0.8835175055774064  0.6814964065435819  1.0000
  Si  Si20      1.0  0.06553518431640203  0.8817904532374975  0.29793173848971716  1.0000
  Si  Si21      1.0  0.06997532697154564  0.08557605995514432  0.2959400972083817  1.0000
  Si  Si22      1.0  0.8761379555807449  0.08818737370268541  0.685786216900241  1.0000
  O   O1        1.0  0.5163237949029531  0.21404645506388023  0.9630966420492839  1.0000
  O   O2        1.0  0.47236435665299514  0.7632333988988906  0.9883381794226725  1.0000
  O   O3        1.0  0.9722542703618262  0.7055387640543481  0.9858029497621482  1.0000
  O   O4        1.0  0.001382936269323108  0.2631889763597897  0.9580800588616463  1.0000
  O   O5        1.0  0.31301145688514875  0.13966988657673912  0.7644673412993926  1.0000
  O   O6        1.0  0.6644993525901359  0.15316672004596849  0.22508823521391727  1.0000
  O   O7        1.0  0.6542339284638149  0.8225957107952648  0.22180354354267076  1.0000
  O   O8        1.0  0.28413518125767373  0.8134621553060785  0.7528951159205762  1.0000
  O   O9        1.0  0.7857350022791277  0.6495485458549859  0.7601244726304999  1.0000
  O   O10       1.0  0.1550082614822545  0.6465389955800992  0.218653330135258  1.0000
  O   O11       1.0  0.16059746805650588  0.32053804947253717  0.2181996286057121  1.0000
  O   O12       1.0  0.790553537095013  0.32392950026866696  0.7664324095512748  1.0000
  O   O13       1.0  0.31077475243603236  0.32896159661879404  0.7938579370661947  1.0000
  O   O14       1.0  0.6397042429444908  0.32769946736729505  0.18940472858112145  1.0000
  O   O15       1.0  0.6280259146676219  0.6472608937192272  0.18479574595630824  1.0000
  O   O16       1.0  0.3173397033915709  0.6418444203560139  0.8019386766878301  1.0000
  O   O17       1.0  0.813902048600582  0.8247857960971675  0.7971289816908046  1.0000
  O   O18       1.0  0.12304970690495175  0.8224743650849436  0.18055935336984608  1.0000
  O   O19       1.0  0.11975366579247497  0.1444546221030873  0.172749354879937  1.0000
  O   O20       1.0  0.8166921504934577  0.1485888324036351  0.8011509983907869  1.0000
  O   O21       1.0  0.26516513522482965  0.22595988478530413  0.03219376279131574  1.0000
  O   O22       1.0  0.7739776712943124  0.24300867115325997  0.03049065300925348  1.0000
  O   O23       1.0  0.7245944387301707  0.7362526111684718  0.9944989552968259  1.0000
  O   O24       1.0  0.22459126624208944  0.7341520673243151  0.9939619630459883  1.0000
  O   O25       1.0  0.4162321237759685  0.3616092477032821  0.2672139689431143  1.0000
  O   O26       1.0  0.5348369833421664  0.36120872889985667  0.7139526027976258  1.0000
  O   O27       1.0  0.5315735882145263  0.6101609940027942  0.7085720878142543  1.0000
  O   O28       1.0  0.41161894972241614  0.609193732688281  0.2709566445967547  1.0000
  O   O29       1.0  0.906385099942292  0.8662286170288301  0.2654783313980847  1.0000
  O   O30       1.0  0.0313588056899331  0.8600343796634453  0.7123357066306968  1.0000
  O   O31       1.0  0.034672122550756  0.11109458354029188  0.721846351057749  1.0000
  O   O32       1.0  0.9124839527108837  0.10258917570208541  0.27233271530405095  1.0000
  O   O33       1.0  0.2990301282158397  0.3567727696491829  0.49958207799885723  1.0000
  O   O34       1.0  0.6524820248758966  0.3596990362818928  0.48184097036431006  1.0000
  O   O35       1.0  0.6514939294912404  0.6121458002184654  0.4786554995072547  1.0000
  O   O36       1.0  0.29199919197513047  0.6128429895452302  0.501433400845482  1.0000
  O   O37       1.0  0.7935392755707895  0.8606480086072803  0.503440529519887  1.0000
  O   O38       1.0  0.14238107054330312  0.852449206917793  0.4740479042131212  1.0000
  O   O39       1.0  0.15594136373641543  0.11572431379329676  0.4687598621331055  1.0000
  O   O40       1.0  0.7974342249718495  0.11153426374935071  0.5073050042668303  1.0000
  O   O41       1.0  0.23373661588105202  0.48420835242107463  0.28520128058641936  1.0000
  O   O42       1.0  0.713232160680396  0.48604002852801387  0.6985613489058152  1.0000
  O   O43       1.0  0.7231833576371853  0.9866996127542258  0.28803311943005727  1.0000
  O   O44       1.0  0.2215122284344403  0.9759145517959645  0.6943170430548167  1.0000
  O   O45       1.0  0.35086888145972  0.4852737977956374  0.7148218041806914  1.0000
  O   O46       1.0  0.5955388962151209  0.48629798478623365  0.26167340296294894  1.0000
  O   O47       1.0  0.8526912406110678  0.985789463627236  0.7257379782005161  1.0000
  O   O48       1.0  0.09848013189784537  0.9830555449658107  0.2610941292749032  1.0000
