data_image0
_chemical_formula_structural       Ge2Si22O48
_chemical_formula_sum              "Ge2 Si22 O48"
_cell_length_a       10.64358993242688
_cell_length_b       15.613406151058872
_cell_length_c       9.188754746671691
_cell_angle_alpha    90.01306195032633
_cell_angle_beta     105.40230208928637
_cell_angle_gamma    90.01795782036825

_space_group_name_H-M_alt    "P 1"
_space_group_IT_number       1

loop_
  _space_group_symop_operation_xyz
  'x, y, z'

loop_
  _atom_site_type_symbol
  _atom_site_label
  _atom_site_symmetry_multiplicity
  _atom_site_fract_x
  _atom_site_fract_y
  _atom_site_fract_z
  _atom_site_occupancy
  Ge  Ge1       1.0  0.29813194274868243  0.377977222001986  0.3161708351153812  1.0000
  Ge  Ge2       1.0  0.7980956700361908  0.07718647706209027  0.31579594639664726  1.0000
  Si  Si1       1.0  0.33110661836630645  0.2281695659299877  0.8840166881319818  1.0000
  Si  Si2       1.0  0.6266451030933047  0.22031246661614456  0.09066680328286385  1.0000
  Si  Si3       1.0  0.6679467889768612  0.7266511350754273  0.09167690187415377  1.0000
  Si  Si4       1.0  0.3728273381549684  0.7382992150836303  0.8820155751831872  1.0000
  Si  Si5       1.0  0.8728026245075134  0.7172581208355219  0.8819232803630096  1.0000
  Si  Si6       1.0  0.16796572578629326  0.7285655926290762  0.0916971433672748  1.0000
  Si  Si7       1.0  0.12660201118161862  0.2349161455147521  0.09069334343500038  1.0000
  Si  Si8       1.0  0.8310547092443781  0.22744307968809702  0.8839034746808471  1.0000
  Si  Si9       1.0  0.6957899677195506  0.37314033366340543  0.6594201788542999  1.0000
  Si  Si10      1.0  0.7057311835198297  0.5773265233938936  0.6587486793003693  1.0000
  Si  Si11      1.0  0.3090162564539009  0.5851788200693658  0.3189402764776917  1.0000
  Si  Si12      1.0  0.8091796487088249  0.8699731740150318  0.3192340460713938  1.0000
  Si  Si13      1.0  0.20586270550199864  0.8782952153202371  0.6590857882618544  1.0000
  Si  Si14      1.0  0.19579603477693863  0.08251864602440359  0.6591263743800734  1.0000
  Si  Si15      1.0  0.39915075510618964  0.37887615890364224  0.682756341708785  1.0000
  Si  Si16      1.0  0.6019174472174155  0.3729729857452111  0.2993122002729931  1.0000
  Si  Si17      1.0  0.6064676790194873  0.577078776738079  0.2994717074086293  1.0000
  Si  Si18      1.0  0.40858526831412006  0.5825433955515962  0.67875872184984  1.0000
  Si  Si19      1.0  0.9086522404139417  0.8730785802925737  0.6790467769245745  1.0000
  Si  Si20      1.0  0.10665488908744049  0.8780832878792975  0.2999034322211759  1.0000
  Si  Si21      1.0  0.10195715760651831  0.08225752952097411  0.29913079167337664  1.0000
  Si  Si22      1.0  0.8990527965018063  0.07671097603433238  0.6823603184708956  1.0000
  O   O1        1.0  0.4666414337668744  0.2081672149754592  0.018876481300984675  1.0000
  O   O2        1.0  0.5311826563148493  0.7530003056861959  0.9630327993783797  1.0000
  O   O3        1.0  0.031132348352175033  0.702489953953822  0.9628616299800072  1.0000
  O   O4        1.0  0.9666413895295152  0.24721949065425605  0.01889280875392452  1.0000
  O   O5        1.0  0.3107138534252413  0.1470722868580306  0.7603382372969238  1.0000
  O   O6        1.0  0.6638833671292313  0.13662129098504902  0.2082852611535185  1.0000
  O   O7        1.0  0.6951659273675294  0.8039784807233563  0.22222772241874567  1.0000
  O   O8        1.0  0.3283827859114665  0.8199172734660749  0.7614064814564747  1.0000
  O   O9        1.0  0.8283097260118127  0.6358500149136402  0.760764573430022  1.0000
  O   O10       1.0  0.1949417568036317  0.6509506438083495  0.22161877837059324  1.0000
  O   O11       1.0  0.16390794874800932  0.31834257650266234  0.20899448817961333  1.0000
  O   O12       1.0  0.8107972823400018  0.3087388753253453  0.7607025544032667  1.0000
  O   O13       1.0  0.3392920008249627  0.32291209017495404  0.8024211420744508  1.0000
  O   O14       1.0  0.6630754061822789  0.31341021771966626  0.18406705645373375  1.0000
  O   O15       1.0  0.6625977647328865  0.6321892427307991  0.17550737124829682  1.0000
  O   O16       1.0  0.34854896673907265  0.643765995162644  0.7925304310361405  1.0000
  O   O17       1.0  0.8486722218970155  0.8119169663990078  0.792951785628222  1.0000
  O   O18       1.0  0.16290860185336697  0.8228898377726851  0.17613694835195148  1.0000
  O   O19       1.0  0.16286528950168153  0.14162025401210632  0.18339405436437903  1.0000
  O   O20       1.0  0.8391035945920648  0.13284742621688256  0.8017469876440995  1.0000
  O   O21       1.0  0.2029140024777704  0.23618501438235198  0.9547997207029392  1.0000
  O   O22       1.0  0.70284251771682  0.2193449542174529  0.9546578087714179  1.0000
  O   O23       1.0  0.7907773060854999  0.7181880882647818  0.012379192113749436  1.0000
  O   O24       1.0  0.2908709673066613  0.7371517796385902  0.012540543111622521  1.0000
  O   O25       1.0  0.4414433437464054  0.3509277749985459  0.26083188137379004  1.0000
  O   O26       1.0  0.5569953706733884  0.35595360042756374  0.7080431889679307  1.0000
  O   O27       1.0  0.5687340018441046  0.6007760127783061  0.7080546625904476  1.0000
  O   O28       1.0  0.44842502669851264  0.6003636188563928  0.2711702425993255  1.0000
  O   O29       1.0  0.9489681635476706  0.8540074291856576  0.2727288797709176  1.0000
  O   O30       1.0  0.06854664049572465  0.8543899305659653  0.7073616696409637  1.0000
  O   O31       1.0  0.05655632706807669  0.10032453259035147  0.7064112675036617  1.0000
  O   O32       1.0  0.9417897711688633  0.10492742283691252  0.2618041703185407  1.0000
  O   O33       1.0  0.31109439855982374  0.35220017349158317  0.5084621967968194  1.0000
  O   O34       1.0  0.6791251540812178  0.3485771811914786  0.4778504747683778  1.0000
  O   O35       1.0  0.6903271993984166  0.6010092509582684  0.4765652299511722  1.0000
  O   O36       1.0  0.3270621957135932  0.6067538172956577  0.5015918883924039  1.0000
  O   O37       1.0  0.8261536839145732  0.8493435583951534  0.5019820197703572  1.0000
  O   O38       1.0  0.1913850139967196  0.8549049887033637  0.47696270128012935  1.0000
  O   O39       1.0  0.1802627493651549  0.10634705904467133  0.47749619559103706  1.0000
  O   O40       1.0  0.8099754997776032  0.10244007811336786  0.508066328398626  1.0000
  O   O41       1.0  0.24976452655545955  0.4862981122274996  0.274216719957186  1.0000
  O   O42       1.0  0.7469900020396216  0.4743783601295417  0.6949051912157967  1.0000
  O   O43       1.0  0.7505723324847065  0.9687956608682734  0.27272950707494265  1.0000
  O   O44       1.0  0.24648450004595993  0.9813056623814513  0.6959571471093571  1.0000
  O   O45       1.0  0.37965546279093065  0.48177127685135346  0.7223359402514509  1.0000
  O   O46       1.0  0.6284057156504512  0.47460374099878555  0.25931720007179637  1.0000
  O   O47       1.0  0.880812631884067  0.9738932345580077  0.7234559344184591  1.0000
  O   O48       1.0  0.1272955048890318  0.9805428590589594  0.25853985667233637  1.0000
