data_image0
_chemical_formula_structural       Ge2Si22O48
_chemical_formula_sum              "Ge2 Si22 O48"
_cell_length_a       10.65763672877364
_cell_length_b       15.611202349890055
_cell_length_c       9.227559651913122
_cell_angle_alpha    89.9890658938913
_cell_angle_beta     105.79728456014556
_cell_angle_gamma    89.99868607067104

_space_group_name_H-M_alt    "P 1"
_space_group_IT_number       1

loop_
  _space_group_symop_operation_xyz
  'x, y, z'

loop_
  _atom_site_type_symbol
  _atom_site_label
  _atom_site_symmetry_multiplicity
  _atom_site_fract_x
  _atom_site_fract_y
  _atom_site_fract_z
  _atom_site_occupancy
  Ge  Ge1       1.0  0.38355173862074143  0.38104558604970684  0.6754270042874059  1.0000
  Ge  Ge2       1.0  0.08727628134375622  0.8812753370778246  0.30254815353130715  1.0000
  Si  Si1       1.0  0.3500828143047873  0.22541081838771693  0.8877280763086911  1.0000
  Si  Si2       1.0  0.6485078002269573  0.23148696091708887  0.09288752134345421  1.0000
  Si  Si3       1.0  0.6214787343283273  0.740077855941084  0.09729771435978614  1.0000
  Si  Si4       1.0  0.324336120469631  0.7380378990051242  0.8859815674023945  1.0000
  Si  Si5       1.0  0.8224720397399813  0.7313206403039995  0.8852358594813251  1.0000
  Si  Si6       1.0  0.12090275542522361  0.7255470267845114  0.0904850055461396  1.0000
  Si  Si7       1.0  0.1466677580817335  0.23811249953094699  0.09218951052331574  1.0000
  Si  Si8       1.0  0.8495548515132464  0.23997271734664788  0.8808715447263598  1.0000
  Si  Si9       1.0  0.28898444931902223  0.38218207054351067  0.31105274766159224  1.0000
  Si  Si10      1.0  0.6882732882995107  0.3823665815247414  0.6598088632886242  1.0000
  Si  Si11      1.0  0.6829421784219997  0.5859905320072394  0.6606330225314768  1.0000
  Si  Si12      1.0  0.29012828760853626  0.5871657675155045  0.31448396739839685  1.0000
  Si  Si13      1.0  0.7824923178740594  0.8825815640331679  0.3181467084387809  1.0000
  Si  Si14      1.0  0.18194536490124652  0.8820927533078985  0.6669726204480164  1.0000
  Si  Si15      1.0  0.18088598646581674  0.08701917031431987  0.6639505737333252  1.0000
  Si  Si16      1.0  0.7880370303642088  0.08618077536893665  0.3177903241002684  1.0000
  Si  Si17      1.0  0.5881885432463998  0.38259215780292327  0.3001768892681557  1.0000
  Si  Si18      1.0  0.5874377871749923  0.5864573640354758  0.3010982184552766  1.0000
  Si  Si19      1.0  0.3840077453387056  0.5885822447814494  0.6728711238501376  1.0000
  Si  Si20      1.0  0.8826863414451713  0.8824106981342879  0.677724272847961  1.0000
  Si  Si21      1.0  0.0868949280985662  0.08868455223120723  0.3054992140884096  1.0000
  Si  Si22      1.0  0.8836315618490874  0.08628916527993435  0.677393701577774  1.0000
  O   O1        1.0  0.5096244262221958  0.21158001114858957  0.9622221479668426  1.0000
  O   O2        1.0  0.4619628942949645  0.7526976123393493  0.020602213131674478  1.0000
  O   O3        1.0  0.9614058727158852  0.7115833066135014  0.01592194174367443  1.0000
  O   O4        1.0  0.009056137085490868  0.2527426342260131  0.957479178374352  1.0000
  O   O5        1.0  0.3042997317794513  0.14441277716716383  0.7667282749633659  1.0000
  O   O6        1.0  0.6721088885786238  0.14913947440953562  0.21384505861871433  1.0000
  O   O7        1.0  0.661817137281377  0.8223978710402391  0.2168842464037182  1.0000
  O   O8        1.0  0.3030496357770659  0.8258847824644694  0.7779858503307654  1.0000
  O   O9        1.0  0.7989521931523632  0.6488108109153671  0.7647066146886776  1.0000
  O   O10       1.0  0.16680708201271036  0.6446243739062127  0.21166400890450862  1.0000
  O   O11       1.0  0.1679090013066127  0.3261057913336635  0.1997688237985273  1.0000
  O   O12       1.0  0.8089604874838263  0.32202918119754304  0.7606869849964311  1.0000
  O   O13       1.0  0.3175324366513685  0.32089141229390733  0.8001963407969022  1.0000
  O   O14       1.0  0.6474982700557972  0.32399723957749127  0.18390199655471198  1.0000
  O   O15       1.0  0.650974899804791  0.6461032903970079  0.18889756193609836  1.0000
  O   O16       1.0  0.3247311977446082  0.6497319922146066  0.7849119685763335  1.0000
  O   O17       1.0  0.8232893281670172  0.8237415281997337  0.7938508583835823  1.0000
  O   O18       1.0  0.1531956547102143  0.8210613094254722  0.17779685063604475  1.0000
  O   O19       1.0  0.14629551369013793  0.1499706348155438  0.19371834917967773  1.0000
  O   O20       1.0  0.8201617537762417  0.14583842520132378  0.7897800089897089  1.0000
  O   O21       1.0  0.2729194800829292  0.2235243501417914  0.021352714963695087  1.0000
  O   O22       1.0  0.7704702333114463  0.2407668540222688  0.013103964622484317  1.0000
  O   O23       1.0  0.7005454419634153  0.740634738872976  0.96505596720381  1.0000
  O   O24       1.0  0.1980781908215371  0.7236753797006134  0.9568752742942573  1.0000
  O   O25       1.0  0.4286092115130869  0.3623386930558168  0.2670731286463802  1.0000
  O   O26       1.0  0.5540796131939477  0.3600362906189458  0.7154194731628396  1.0000
  O   O27       1.0  0.5450054770087212  0.6032748736695965  0.7097095946392596  1.0000
  O   O28       1.0  0.4271810784026925  0.6070507461729573  0.26439519553582175  1.0000
  O   O29       1.0  0.9165508889062877  0.8608292408983034  0.26166891778890483  1.0000
  O   O30       1.0  0.042468628118341324  0.8626544257252551  0.7115525521607932  1.0000
  O   O31       1.0  0.04413407453759447  0.10634475812964242  0.7150505890266068  1.0000
  O   O32       1.0  0.9257374964770527  0.10293602020629407  0.26788741609857575  1.0000
  O   O33       1.0  0.2983633178666181  0.35099864745770876  0.48817230309980186  1.0000
  O   O34       1.0  0.6682216561193318  0.3580700170786065  0.4781177690111187  1.0000
  O   O35       1.0  0.6653740108147438  0.6108023485792552  0.4796594786145444  1.0000
  O   O36       1.0  0.30786739833771437  0.6140040642159602  0.49456087762224227  1.0000
  O   O37       1.0  0.8033017267936507  0.8575725423735285  0.4997091693144061  1.0000
  O   O38       1.0  0.17180849468967443  0.8507124664291787  0.48977104806086685  1.0000
  O   O39       1.0  0.16217815831284133  0.11436799838926381  0.48390333254786094  1.0000
  O   O40       1.0  0.8064927800464977  0.11125622127193542  0.49881973063028173  1.0000
  O   O41       1.0  0.24516793118304586  0.48479632777154186  0.28315389107251965  1.0000
  O   O42       1.0  0.7336429662205068  0.48462304060844097  0.6952192691031417  1.0000
  O   O43       1.0  0.7367593815794247  0.984873678262027  0.283897120594214  1.0000
  O   O44       1.0  0.2262745648022007  0.9846499842641145  0.6942408002814611  1.0000
  O   O45       1.0  0.3489429093843353  0.48855171697798466  0.715872703686951  1.0000
  O   O46       1.0  0.6141361228784727  0.4846998019117894  0.2609679789634295  1.0000
  O   O47       1.0  0.8559253121271816  0.9844871655517892  0.7163152470071776  1.0000
  O   O48       1.0  0.12287684005952046  0.9887494214580212  0.2629577469867647  1.0000
