data_image0
_chemical_formula_structural       Ge2Si22O48
_chemical_formula_sum              "Ge2 Si22 O48"
_cell_length_a       10.698855776978073
_cell_length_b       15.597663118696499
_cell_length_c       9.212050320281813
_cell_angle_alpha    90.03597098111716
_cell_angle_beta     105.71601781071378
_cell_angle_gamma    89.85835215853801

_space_group_name_H-M_alt    "P 1"
_space_group_IT_number       1

loop_
  _space_group_symop_operation_xyz
  'x, y, z'

loop_
  _atom_site_type_symbol
  _atom_site_label
  _atom_site_symmetry_multiplicity
  _atom_site_fract_x
  _atom_site_fract_y
  _atom_site_fract_z
  _atom_site_occupancy
  Ge  Ge1       1.0  0.34934741365310945  0.22832443513443823  0.8847912455483165  1.0000
  Ge  Ge2       1.0  0.07895303045934418  0.8811110531730336  0.2995907265039901  1.0000
  Si  Si1       1.0  0.6508799172121268  0.23228752527744642  0.09791137955102812  1.0000
  Si  Si2       1.0  0.6163520949737394  0.7409055461895631  0.097154742908571  1.0000
  Si  Si3       1.0  0.32037578280538426  0.7370151475627431  0.8853558144023462  1.0000
  Si  Si4       1.0  0.8183808340764737  0.7313532914016634  0.8857797308275072  1.0000
  Si  Si5       1.0  0.11587460940006979  0.7253212104221547  0.08918180455568996  1.0000
  Si  Si6       1.0  0.14100428250530056  0.24083264077626576  0.09539057434125756  1.0000
  Si  Si7       1.0  0.8486860680651991  0.24211250551328875  0.8860185870895554  1.0000
  Si  Si8       1.0  0.28697441150699204  0.3831331665448614  0.3156333640775594  1.0000
  Si  Si9       1.0  0.6781337432906022  0.382957999370733  0.6615684046917928  1.0000
  Si  Si10      1.0  0.6778309438396432  0.5869460316934432  0.6604538606188698  1.0000
  Si  Si11      1.0  0.2853902915811382  0.58798370031306  0.31514030838630946  1.0000
  Si  Si12      1.0  0.7764279834558433  0.8830337690086256  0.31912281669379317  1.0000
  Si  Si13      1.0  0.17534801318673618  0.8797154858147133  0.663718726982716  1.0000
  Si  Si14      1.0  0.1763769683813525  0.08523216949914687  0.6600073773239259  1.0000
  Si  Si15      1.0  0.7829652360389601  0.08613929975863553  0.3222685424218655  1.0000
  Si  Si16      1.0  0.3816106256082779  0.3845167383372202  0.6740459953919969  1.0000
  Si  Si17      1.0  0.5823724736958825  0.3828682767271736  0.30118718476826445  1.0000
  Si  Si18      1.0  0.5815908959125172  0.5872055341487707  0.3011639405880096  1.0000
  Si  Si19      1.0  0.3810097113681803  0.5883593825517197  0.6727136802034845  1.0000
  Si  Si20      1.0  0.8793425092199276  0.8826005095771532  0.6796267273876744  1.0000
  Si  Si21      1.0  0.07898082595089065  0.08826800911579376  0.3025435151611197  1.0000
  Si  Si22      1.0  0.8831097518123188  0.08673770833176317  0.6819493237909101  1.0000
  O   O1        1.0  0.5188371431485681  0.2112561694016855  0.9578195497177387  1.0000
  O   O2        1.0  0.45802436962289167  0.7546017317919408  0.017719440932330344  1.0000
  O   O3        1.0  0.9575426686398936  0.7099798427453571  0.014065611705259697  1.0000
  O   O4        1.0  0.007295145755696575  0.2607333140370952  0.9574465522116744  1.0000
  O   O5        1.0  0.30408435544534695  0.13961156278811437  0.7607153313768716  1.0000
  O   O6        1.0  0.668647296610179  0.1509344884873508  0.2205434250717681  1.0000
  O   O7        1.0  0.6562840492485983  0.8225207180994487  0.2187848531892201  1.0000
  O   O8        1.0  0.29681109283093127  0.823160552624429  0.7727527037833812  1.0000
  O   O9        1.0  0.7941771444761045  0.6491138114073064  0.7643073227265956  1.0000
  O   O10       1.0  0.16218480473922792  0.6453478846887554  0.21254349195643055  1.0000
  O   O11       1.0  0.16462080577982222  0.3246810840833231  0.21323613610039774  1.0000
  O   O12       1.0  0.7969123309748132  0.3221092071115888  0.7640464745605456  1.0000
  O   O13       1.0  0.3161845282460936  0.32870795900155647  0.7897452350994697  1.0000
  O   O14       1.0  0.644491586442587  0.3253495370420387  0.18568474832392012  1.0000
  O   O15       1.0  0.6439419108867395  0.6463519001701807  0.18739552659106035  1.0000
  O   O16       1.0  0.3219852854291459  0.646538743804951  0.7893435141000359  1.0000
  O   O17       1.0  0.8192737891281779  0.8242261393527729  0.7954774336580386  1.0000
  O   O18       1.0  0.14494865285464237  0.8218055151182504  0.17355759456377667  1.0000
  O   O19       1.0  0.13287394695335247  0.14956814480244532  0.18615157480268557  1.0000
  O   O20       1.0  0.823801269444971  0.1469974941141975  0.7973776958144776  1.0000
  O   O21       1.0  0.2715761961963884  0.226963590422326  0.03166098464059089  1.0000
  O   O22       1.0  0.7774258929286508  0.24048660503735148  0.025712733379428927  1.0000
  O   O23       1.0  0.6979175320497266  0.7411821971903684  0.9672886482916649  1.0000
  O   O24       1.0  0.19512785106702532  0.7232757113814914  0.9575052981519542  1.0000
  O   O25       1.0  0.42331089444657605  0.3619238042133326  0.2654530424556857  1.0000
  O   O26       1.0  0.5411073916736409  0.3638266656915726  0.7113157594727921  1.0000
  O   O27       1.0  0.5402252587542827  0.6070966065148746  0.7078122227896706  1.0000
  O   O28       1.0  0.4223392082815773  0.6087546041139813  0.2663772304402908  1.0000
  O   O29       1.0  0.9082658520459092  0.8631438497759152  0.2576005913577433  1.0000
  O   O30       1.0  0.038475328376798845  0.8620957782960906  0.7140874838457538  1.0000
  O   O31       1.0  0.04318181363314272  0.105281764567059  0.7172359916984331  1.0000
  O   O32       1.0  0.9183800800881081  0.1002015964210386  0.2676401485794025  1.0000
  O   O33       1.0  0.30460973222543364  0.3575921197996144  0.496613921718886  1.0000
  O   O34       1.0  0.6605265008375103  0.35848702443660235  0.47991442996194766  1.0000
  O   O35       1.0  0.6617592461585936  0.6111267534256476  0.4792246452520356  1.0000
  O   O36       1.0  0.3018649140486935  0.6144537796680947  0.49553637736570877  1.0000
  O   O37       1.0  0.8011246418175452  0.857422989297064  0.5013213846745503  1.0000
  O   O38       1.0  0.16050614012757708  0.8470090039853647  0.48586348713987837  1.0000
  O   O39       1.0  0.15426574112967287  0.11539516123060509  0.4803588816669265  1.0000
  O   O40       1.0  0.8051067034876335  0.11232544438054752  0.5037914539315107  1.0000
  O   O41       1.0  0.24185143520504002  0.4854296450528318  0.28212386161983355  1.0000
  O   O42       1.0  0.7252712591080657  0.48499584810980967  0.6969543297490182  1.0000
  O   O43       1.0  0.7287473024553417  0.9854201198640067  0.2891102177467839  1.0000
  O   O44       1.0  0.2202598847370901  0.9823361423727759  0.6855956752449136  1.0000
  O   O45       1.0  0.3531932551429619  0.486483149732633  0.7105643520646957  1.0000
  O   O46       1.0  0.6069383426015991  0.4850893746027197  0.2612801976246283  1.0000
  O   O47       1.0  0.8537149408596444  0.9849012037402467  0.7191524533798167  1.0000
  O   O48       1.0  0.1179245015061671  0.9883512861212795  0.26275932661622325  1.0000
