data_image0
_chemical_formula_structural       Ge2Si22O48
_chemical_formula_sum              "Ge2 Si22 O48"
_cell_length_a       10.727366010714446
_cell_length_b       15.579164821274283
_cell_length_c       9.200068107538737
_cell_angle_alpha    89.99972053882281
_cell_angle_beta     105.57716473489593
_cell_angle_gamma    90.00232620787486

_space_group_name_H-M_alt    "P 1"
_space_group_IT_number       1

loop_
  _space_group_symop_operation_xyz
  'x, y, z'

loop_
  _atom_site_type_symbol
  _atom_site_label
  _atom_site_symmetry_multiplicity
  _atom_site_fract_x
  _atom_site_fract_y
  _atom_site_fract_z
  _atom_site_occupancy
  Ge  Ge1       1.0  0.34633719146405845  0.22579780862077375  0.8902475794604054  1.0000
  Ge  Ge2       1.0  0.3462632544517336  0.7404180328464087  0.8901408971146074  1.0000
  Si  Si1       1.0  0.64667005494212  0.2299866392772143  0.10330792534099979  1.0000
  Si  Si2       1.0  0.6465881274647756  0.7361377639844692  0.10329558140855863  1.0000
  Si  Si3       1.0  0.8452066384162963  0.7254539335661947  0.8915799810943097  1.0000
  Si  Si4       1.0  0.13642091423114067  0.7284617384025065  0.09960066296570214  1.0000
  Si  Si5       1.0  0.1364890097238871  0.23766918392180372  0.09966652514327094  1.0000
  Si  Si6       1.0  0.8452966506265225  0.240778316940453  0.891627038123379  1.0000
  Si  Si7       1.0  0.2834492571489007  0.3806241417673477  0.32096534205949134  1.0000
  Si  Si8       1.0  0.6743210346151248  0.38028660100991923  0.6660832581066356  1.0000
  Si  Si9       1.0  0.6742724493490798  0.5859345881917872  0.665983653032121  1.0000
  Si  Si10      1.0  0.28338114315276797  0.5854830371380563  0.3208757377914549  1.0000
  Si  Si11      1.0  0.7783382835891105  0.8822737918146528  0.3283293606912366  1.0000
  Si  Si12      1.0  0.17213430632108673  0.8798821944203923  0.6609157530444293  1.0000
  Si  Si13      1.0  0.17212376278697467  0.08636782495659309  0.6608756250962227  1.0000
  Si  Si14      1.0  0.7783425117359118  0.08388102559523276  0.3283332867104989  1.0000
  Si  Si15      1.0  0.37978120470375987  0.3808594823305049  0.6793509320908034  1.0000
  Si  Si16      1.0  0.5785958824188293  0.3806604300241174  0.3065037061199812  1.0000
  Si  Si17      1.0  0.5785365986540772  0.5854327833580394  0.3064157009186363  1.0000
  Si  Si18      1.0  0.37972572788590786  0.5853229780832692  0.6792591763199141  1.0000
  Si  Si19      1.0  0.8822056126166506  0.8806309766993436  0.6884412844736276  1.0000
  Si  Si20      1.0  0.07331120242340243  0.8815823418302642  0.30470090497374247  1.0000
  Si  Si21      1.0  0.07331780180261091  0.08457299083853641  0.30472546357849983  1.0000
  Si  Si22      1.0  0.8821755821117487  0.08561601670996098  0.688444696494297  1.0000
  O   O1        1.0  0.5146924428672378  0.20737785593082772  0.964662915750184  1.0000
  O   O2        1.0  0.5146042056926845  0.758804124103076  0.9647228105125634  1.0000
  O   O3        1.0  0.002934616108399063  0.705677816035006  0.9639066974706483  1.0000
  O   O4        1.0  0.0030629097661502747  0.2604604963183901  0.9638829076508266  1.0000
  O   O5        1.0  0.3013128412112682  0.13934603247184854  0.7608776598729017  1.0000
  O   O6        1.0  0.6652347713599406  0.1495644327985415  0.2281761987106911  1.0000
  O   O7        1.0  0.6652887881775558  0.8165401234554951  0.22820508131599035  1.0000
  O   O8        1.0  0.30135970603890233  0.8269923694340425  0.7610246599843394  1.0000
  O   O9        1.0  0.7939561341381707  0.645415068039621  0.7692536812847386  1.0000
  O   O10       1.0  0.162591012354614  0.6456528341800637  0.22019743595497807  1.0000
  O   O11       1.0  0.16263937943624396  0.320467764013231  0.22028296079925924  1.0000
  O   O12       1.0  0.7940420141216453  0.3209210139203195  0.7695555615257875  1.0000
  O   O13       1.0  0.3141755336743115  0.3268566136372132  0.7971458086451031  1.0000
  O   O14       1.0  0.6392772154489034  0.3236726069347856  0.18906142194500652  1.0000
  O   O15       1.0  0.6391638260988456  0.6424308416726799  0.1889418747921926  1.0000
  O   O16       1.0  0.31404103676337886  0.6394103189633926  0.7968820949469494  1.0000
  O   O17       1.0  0.8218971900032161  0.8210607149706133  0.8039606712783363  1.0000
  O   O18       1.0  0.1251115692593875  0.8216536555716809  0.1842085977998004  1.0000
  O   O19       1.0  0.1251159524006933  0.14447449784849783  0.18420303589968323  1.0000
  O   O20       1.0  0.8218211056045633  0.14522830491721722  0.8038542845965821  1.0000
  O   O21       1.0  0.2664706453586921  0.22354984624439042  0.03535053118222807  1.0000
  O   O22       1.0  0.7724883208193495  0.2383919035271545  0.03016199622924399  1.0000
  O   O23       1.0  0.7723655318003183  0.7277156594630343  0.03008846124117824  1.0000
  O   O24       1.0  0.2663411723117626  0.7426125086805115  0.03519608056588676  1.0000
  O   O25       1.0  0.4194744552228446  0.3611130220668501  0.26973363472352535  1.0000
  O   O26       1.0  0.5384249173800747  0.3594085756581591  0.7169321796503046  1.0000
  O   O27       1.0  0.5383575593271334  0.6067821022256195  0.7168047103393463  1.0000
  O   O28       1.0  0.41942225159975577  0.604990077917645  0.2696694630395072  1.0000
  O   O29       1.0  0.9142970806416887  0.8665817296369303  0.27598168086083996  1.0000
  O   O30       1.0  0.03930612782163727  0.8557780255598825  0.7158481963347298  1.0000
  O   O31       1.0  0.039301660052752166  0.11045276266507881  0.7158476937977781  1.0000
  O   O32       1.0  0.9143297407020976  0.09960820935665894  0.27605890655307125  1.0000
  O   O33       1.0  0.30227844766146206  0.35415031939242136  0.5020706221295844  1.0000
  O   O34       1.0  0.6561105320834889  0.35449902894725793  0.48461247163318094  1.0000
  O   O35       1.0  0.6560399107543987  0.6116501490639088  0.48448684332431363  1.0000
  O   O36       1.0  0.30218425040715696  0.611968247259798  0.5019627816155563  1.0000
  O   O37       1.0  0.7980403748091323  0.8591769321019672  0.5108730662109192  1.0000
  O   O38       1.0  0.1535366334950251  0.8528727188541971  0.4802004274903245  1.0000
  O   O39       1.0  0.15352880765564783  0.11337426632486099  0.48016245489475345  1.0000
  O   O40       1.0  0.7980360129817156  0.10703182166442103  0.5108535476965478  1.0000
  O   O41       1.0  0.2371378226010649  0.48304455849556444  0.288690944670194  1.0000
  O   O42       1.0  0.7183907968752007  0.4831192914458168  0.6987338105244677  1.0000
  O   O43       1.0  0.7243405922189984  0.9830805462594965  0.29117905448273446  1.0000
  O   O44       1.0  0.21101350331335353  0.9831287192603226  0.6909176296416156  1.0000
  O   O45       1.0  0.3530082166721206  0.48309484903562594  0.7151882697121555  1.0000
  O   O46       1.0  0.6062648358156791  0.4830463484159192  0.27032372599734983  1.0000
  O   O47       1.0  0.8639312434289897  0.9831209555521352  0.7337632850435448  1.0000
  O   O48       1.0  0.10574831834333767  0.9830846290852078  0.2677279211355335  1.0000
