data_image0
_chemical_formula_structural       Ge2Si22O48
_chemical_formula_sum              "Ge2 Si22 O48"
_cell_length_a       10.699092424188583
_cell_length_b       15.595118369124352
_cell_length_c       9.208179553875382
_cell_angle_alpha    90.12289679728109
_cell_angle_beta     105.68637938089228
_cell_angle_gamma    89.60349170675892

_space_group_name_H-M_alt    "P 1"
_space_group_IT_number       1

loop_
  _space_group_symop_operation_xyz
  'x, y, z'

loop_
  _atom_site_type_symbol
  _atom_site_label
  _atom_site_symmetry_multiplicity
  _atom_site_fract_x
  _atom_site_fract_y
  _atom_site_fract_z
  _atom_site_occupancy
  Ge  Ge1       1.0  0.34704265998344663  0.2222003294233251  0.8928287126813208  1.0000
  Ge  Ge2       1.0  0.3777174237116117  0.380752770795902  0.6801720538120465  1.0000
  Si  Si1       1.0  0.6487173298940533  0.23057561086801895  0.09960711008463502  1.0000
  Si  Si2       1.0  0.6371369683173241  0.7370807764635213  0.09876597640395651  1.0000
  Si  Si3       1.0  0.3405357135492201  0.7407560356773918  0.8886434302458869  1.0000
  Si  Si4       1.0  0.838849701650201  0.7259887286676077  0.8866459598125602  1.0000
  Si  Si5       1.0  0.1351183385681307  0.7290472451363181  0.09543821783950301  1.0000
  Si  Si6       1.0  0.13930988677233855  0.2349460910144816  0.09975187279651287  1.0000
  Si  Si7       1.0  0.8473387581578158  0.23913783519197593  0.8883030660561235  1.0000
  Si  Si8       1.0  0.28131379124569456  0.38141991150182275  0.31405404053972763  1.0000
  Si  Si9       1.0  0.6793480074196915  0.3794065452925556  0.6640238344220646  1.0000
  Si  Si10      1.0  0.6750055661218233  0.5847082030235023  0.6632434956736192  1.0000
  Si  Si11      1.0  0.2823639163681617  0.586193744886734  0.3199503987067168  1.0000
  Si  Si12      1.0  0.778306348622435  0.8820362757942477  0.3222530675289881  1.0000
  Si  Si13      1.0  0.17080452683084918  0.8767376002560364  0.6615265307158101  1.0000
  Si  Si14      1.0  0.1726475190935701  0.08265275872857153  0.6646000812968104  1.0000
  Si  Si15      1.0  0.7792796366788478  0.0838936180246535  0.3253304093669269  1.0000
  Si  Si16      1.0  0.5792639699826729  0.38110634020132383  0.30363676848722454  1.0000
  Si  Si17      1.0  0.5786463995386019  0.5854212533898209  0.30457903890701116  1.0000
  Si  Si18      1.0  0.37836049546872813  0.5886121998695772  0.6791497819475724  1.0000
  Si  Si19      1.0  0.8777445760362746  0.8795418308592472  0.6826411111795727  1.0000
  Si  Si20      1.0  0.07533861121478909  0.8801562523500988  0.3046163513494136  1.0000
  Si  Si21      1.0  0.07575950574055629  0.08341468211751966  0.3083694059994632  1.0000
  Si  Si22      1.0  0.8797688196974708  0.08389983611883936  0.6857198675252709  1.0000
  O   O1        1.0  0.5175666699312671  0.2073902218710743  0.959615539823864  1.0000
  O   O2        1.0  0.49694557010692325  0.75789064215388  0.9719654311699422  1.0000
  O   O3        1.0  0.9960894961705362  0.7081518774910215  0.9673553153327252  1.0000
  O   O4        1.0  0.006870534379512213  0.25344332885648385  0.9591882827391964  1.0000
  O   O5        1.0  0.30216452959908574  0.13478502922782945  0.765832461557529  1.0000
  O   O6        1.0  0.6668986721270156  0.15034321484878738  0.22442443686526656  1.0000
  O   O7        1.0  0.6623641992827752  0.8188345701391208  0.2211842934688563  1.0000
  O   O8        1.0  0.29563736295082876  0.8213743338621496  0.7662685939737209  1.0000
  O   O9        1.0  0.7943905938977026  0.6442186481157679  0.766625731307019  1.0000
  O   O10       1.0  0.16260243176337236  0.6468164938280944  0.216908602991809  1.0000
  O   O11       1.0  0.1610877236122686  0.32286646231423277  0.20841290063421627  1.0000
  O   O12       1.0  0.8008963487586405  0.31985654391532076  0.7657391880349464  1.0000
  O   O13       1.0  0.30573612895071317  0.32399789940518997  0.8036435380351756  1.0000
  O   O14       1.0  0.6394341042530702  0.32393422471429073  0.1856237275967244  1.0000
  O   O15       1.0  0.6374806474956172  0.643708912974984  0.1878181801076662  1.0000
  O   O16       1.0  0.3183034768568013  0.6474625154621554  0.7953622123604861  1.0000
  O   O17       1.0  0.8149955652540182  0.8203385006435604  0.7956110895200373  1.0000
  O   O18       1.0  0.13114746549858958  0.8222103580213221  0.18405051802227596  1.0000
  O   O19       1.0  0.13020983404551406  0.14487190663414196  0.19295520451251078  1.0000
  O   O20       1.0  0.8182141752711359  0.14392789218700025  0.8000532903848369  1.0000
  O   O21       1.0  0.27235570465939163  0.2163773841257533  0.04211974052545581  1.0000
  O   O22       1.0  0.775156931300639  0.2400267354169009  0.027448446066998172  1.0000
  O   O23       1.0  0.7571216439517019  0.7288849904025758  0.016277212904560696  1.0000
  O   O24       1.0  0.2566045457250518  0.738345266766899  0.015908197196098418  1.0000
  O   O25       1.0  0.4195266345759592  0.3627429043037932  0.2664070839823653  1.0000
  O   O26       1.0  0.5471747701254339  0.3573729748748038  0.7232811836422429  1.0000
  O   O27       1.0  0.5384332949923891  0.6046112410550943  0.7139009926145008  1.0000
  O   O28       1.0  0.4190518619123111  0.6046224192074491  0.2697062411567165  1.0000
  O   O29       1.0  0.9153012244075462  0.8650298821170955  0.271298708646053  1.0000
  O   O30       1.0  0.03588752102468217  0.8551378071245107  0.7138816510097512  1.0000
  O   O31       1.0  0.03865090119976845  0.10573898376177801  0.7187789397233558  1.0000
  O   O32       1.0  0.9159244805002835  0.09918413937395544  0.2741866987990483  1.0000
  O   O33       1.0  0.2945047850388225  0.35073075355328054  0.4924771216991361  1.0000
  O   O34       1.0  0.6562250134636439  0.3540082463522414  0.4817405793927405  1.0000
  O   O35       1.0  0.6569095064839994  0.6113139500681803  0.4824665668088796  1.0000
  O   O36       1.0  0.30046652513493016  0.6131784219051124  0.5006809817774719  1.0000
  O   O37       1.0  0.7967892858807412  0.8579154272037648  0.5040060772958911  1.0000
  O   O38       1.0  0.15301360434212818  0.8499251980830724  0.4806959739548501  1.0000
  O   O39       1.0  0.1536703952654022  0.11126789556748067  0.4849116384310926  1.0000
  O   O40       1.0  0.7986228148740954  0.10715187922500209  0.5076092282001055  1.0000
  O   O41       1.0  0.2353858301021074  0.4841928016960882  0.2871224467341224  1.0000
  O   O42       1.0  0.7219450682621471  0.4822471682859504  0.6953621093582658  1.0000
  O   O43       1.0  0.7256978907623719  0.9834165593223555  0.28695024587957496  1.0000
  O   O44       1.0  0.21270471422215603  0.9793141053684766  0.6919705102289869  1.0000
  O   O45       1.0  0.3451007295225011  0.4885356163655793  0.7219149989677497  1.0000
  O   O46       1.0  0.607763576081664  0.48321617170114545  0.2681817702755273  1.0000
  O   O47       1.0  0.8569074558742411  0.9817733462653012  0.7274465865803961  1.0000
  O   O48       1.0  0.10852392992438814  0.9818661504816103  0.27154161250594294  1.0000
