data_image0
_chemical_formula_structural       Ge2Si22O48
_chemical_formula_sum              "Ge2 Si22 O48"
_cell_length_a       10.683206183210505
_cell_length_b       15.613226354907448
_cell_length_c       9.193089742318804
_cell_angle_alpha    90.0826114114881
_cell_angle_beta     105.45997049095227
_cell_angle_gamma    90.06795781548655

_space_group_name_H-M_alt    "P 1"
_space_group_IT_number       1

loop_
  _space_group_symop_operation_xyz
  'x, y, z'

loop_
  _atom_site_type_symbol
  _atom_site_label
  _atom_site_symmetry_multiplicity
  _atom_site_fract_x
  _atom_site_fract_y
  _atom_site_fract_z
  _atom_site_occupancy
  Ge  Ge1       1.0  0.2825479919807321  0.37816807148917897  0.32182379814394435  1.0000
  Ge  Ge2       1.0  0.17924802617500415  0.08846368096073447  0.6610866017959581  1.0000
  Si  Si1       1.0  0.350255967323402  0.22989555334489464  0.8929965334691298  1.0000
  Si  Si2       1.0  0.6472775376277755  0.23035765695448077  0.10140317763734526  1.0000
  Si  Si3       1.0  0.638181034920642  0.7370958467425108  0.09801814549838593  1.0000
  Si  Si4       1.0  0.3425420995706936  0.7393732468338765  0.888005897516063  1.0000
  Si  Si5       1.0  0.8421570194259954  0.7280424102214734  0.8871416360522769  1.0000
  Si  Si6       1.0  0.1376458543554101  0.7288802585926303  0.0969211629259406  1.0000
  Si  Si7       1.0  0.13753313561566444  0.23297896175678703  0.08948973311614164  1.0000
  Si  Si8       1.0  0.8435950598989174  0.24035199732737586  0.8842333521256251  1.0000
  Si  Si9       1.0  0.6784875745257868  0.3833192867100229  0.6664376920323193  1.0000
  Si  Si10      1.0  0.6769381613394635  0.5875133797062183  0.6623691615730243  1.0000
  Si  Si11      1.0  0.281846428352412  0.5860360041295141  0.3212850279197498  1.0000
  Si  Si12      1.0  0.7818975922104191  0.8806250887881143  0.3231135776704208  1.0000
  Si  Si13      1.0  0.17749905619484152  0.8793121493187223  0.6633198248052895  1.0000
  Si  Si14      1.0  0.7825086158705675  0.08324215883616562  0.32000539270242034  1.0000
  Si  Si15      1.0  0.3831947832302799  0.3825624123814481  0.6884359108183155  1.0000
  Si  Si16      1.0  0.5855010943503008  0.38084884617657716  0.3060336104883276  1.0000
  Si  Si17      1.0  0.5789595446298664  0.5849439023260125  0.30329985962615924  1.0000
  Si  Si18      1.0  0.3813338613615416  0.5865819672910818  0.6811204780266813  1.0000
  Si  Si19      1.0  0.8814266579889279  0.8826049887352978  0.6834420276844104  1.0000
  Si  Si20      1.0  0.07849799272181097  0.8795098988706551  0.3050814492972  1.0000
  Si  Si21      1.0  0.0784423947483028  0.08364627767698626  0.2969247904471835  1.0000
  Si  Si22      1.0  0.8774724799607373  0.08630288989538829  0.6811629917118452  1.0000
  O   O1        1.0  0.5075149479436498  0.21367601608666748  0.97238690750532  1.0000
  O   O2        1.0  0.4988190281598403  0.7584606415246902  0.9709165964217956  1.0000
  O   O3        1.0  0.9983319806016268  0.7081385535375563  0.9690596877443725  1.0000
  O   O4        1.0  0.0031855782128890047  0.2545788749971269  0.9544028318816848  1.0000
  O   O5        1.0  0.3114776855050104  0.15058380259259618  0.765799803348932  1.0000
  O   O6        1.0  0.6665861019846082  0.14644295877731267  0.21863035367094183  1.0000
  O   O7        1.0  0.6645047116548565  0.8173769615936021  0.22367575401790193  1.0000
  O   O8        1.0  0.29686004682052874  0.8191852939928785  0.7648122192168542  1.0000
  O   O9        1.0  0.7964041744342397  0.6485819411975099  0.7623578386650013  1.0000
  O   O10       1.0  0.16401783328715427  0.6481932131758384  0.22097100754908422  1.0000
  O   O11       1.0  0.1544303085331547  0.31255485766641217  0.2171958642354525  1.0000
  O   O12       1.0  0.7983394778072025  0.32392889457123397  0.7691828548151746  1.0000
  O   O13       1.0  0.32604796692300114  0.32651509466417483  0.8108628247657923  1.0000
  O   O14       1.0  0.6516758456698445  0.32286787467437394  0.19453885149281192  1.0000
  O   O15       1.0  0.6362113626254059  0.6430713970277344  0.18416859386829018  1.0000
  O   O16       1.0  0.320825549772507  0.6449388854027834  0.7978941241028277  1.0000
  O   O17       1.0  0.8219827165856634  0.8233394849921662  0.8000610219550104  1.0000
  O   O18       1.0  0.1360939169994615  0.8221855953936072  0.18538710823945642  1.0000
  O   O19       1.0  0.13054867901182324  0.13757227971029568  0.16904704376523452  1.0000
  O   O20       1.0  0.8117176135227522  0.1469322487761181  0.7905379577954278  1.0000
  O   O21       1.0  0.26637524757871117  0.22687008942191492  0.02093521323119116  1.0000
  O   O22       1.0  0.7697391822085978  0.23772637400711386  0.021843270744571323  1.0000
  O   O23       1.0  0.7588338981280434  0.7298373490348709  0.015803876714554695  1.0000
  O   O24       1.0  0.25917402781113924  0.7369642533346253  0.016457543847725544  1.0000
  O   O25       1.0  0.42673590352591406  0.3559470940894398  0.2658567559729025  1.0000
  O   O26       1.0  0.5420076267349535  0.36278763069626674  0.7169742320156274  1.0000
  O   O27       1.0  0.5400150066640945  0.6082626628187797  0.7120474457463077  1.0000
  O   O28       1.0  0.4196643416613372  0.6034935181867274  0.2718954795297339  1.0000
  O   O29       1.0  0.9192367603899444  0.860866373014456  0.2739769583493376  1.0000
  O   O30       1.0  0.0403193654368886  0.8618991726223314  0.7143224044441937  1.0000
  O   O31       1.0  0.03634818523462268  0.11178113539694998  0.7189920606592616  1.0000
  O   O32       1.0  0.9197410189837065  0.10158274933462157  0.2703062716296993  1.0000
  O   O33       1.0  0.29825352704979774  0.3525461311218883  0.5147270864347059  1.0000
  O   O34       1.0  0.6617754698614535  0.357784006608774  0.485333574719894  1.0000
  O   O35       1.0  0.6594531610403042  0.611073407102797  0.4802821487523588  1.0000
  O   O36       1.0  0.29991899993042287  0.6097741509451698  0.5034235750118908  1.0000
  O   O37       1.0  0.799582308654265  0.858844545532711  0.5058935953712066  1.0000
  O   O38       1.0  0.15847666926233372  0.8531558383596416  0.48191654380477134  1.0000
  O   O39       1.0  0.1635728499034588  0.11644507945793066  0.4691150681213161  1.0000
  O   O40       1.0  0.7993902135577903  0.10714809606891142  0.5016586736501701  1.0000
  O   O41       1.0  0.2278730650659977  0.4854351408975699  0.280916196421412  1.0000
  O   O42       1.0  0.7233765294787273  0.48574695724815165  0.6996421917163038  1.0000
  O   O43       1.0  0.7326268557800393  0.9818264886703711  0.28339676322081825  1.0000
  O   O44       1.0  0.23017817914260458  0.9803452841150011  0.699377484099458  1.0000
  O   O45       1.0  0.3567183286595301  0.48497991203768587  0.7234507960628086  1.0000
  O   O46       1.0  0.6073377631156709  0.4831468272235921  0.26503847774650324  1.0000
  O   O47       1.0  0.8567560410352278  0.9844322931277657  0.7259745574100871  1.0000
  O   O48       1.0  0.10772015018657873  0.981017791327221  0.26710125353580844  1.0000
