data_image0
_chemical_formula_structural       Ge2Si22O48
_chemical_formula_sum              "Ge2 Si22 O48"
_cell_length_a       10.666241988076003
_cell_length_b       15.613300911235212
_cell_length_c       9.210910642881538
_cell_angle_alpha    90.12784761571544
_cell_angle_beta     105.62648708949071
_cell_angle_gamma    89.90668858184115

_space_group_name_H-M_alt    "P 1"
_space_group_IT_number       1

loop_
  _space_group_symop_operation_xyz
  'x, y, z'

loop_
  _atom_site_type_symbol
  _atom_site_label
  _atom_site_symmetry_multiplicity
  _atom_site_fract_x
  _atom_site_fract_y
  _atom_site_fract_z
  _atom_site_occupancy
  Ge  Ge1       1.0  0.2828617957338861  0.38000595992165065  0.3220179341705496  1.0000
  Ge  Ge2       1.0  0.8857307401986871  0.8782524987721563  0.6841304072384091  1.0000
  Si  Si1       1.0  0.34744046936474393  0.22614598354661286  0.8907836864176918  1.0000
  Si  Si2       1.0  0.6449596172247172  0.2268735809307385  0.0987159630569282  1.0000
  Si  Si3       1.0  0.6467704309819216  0.7321168046245652  0.09793355351470935  1.0000
  Si  Si4       1.0  0.3507618576014613  0.7398765889590172  0.8859175903658713  1.0000
  Si  Si5       1.0  0.8504796252062711  0.7211466728652941  0.8920027051819354  1.0000
  Si  Si6       1.0  0.1473581754653957  0.7308018453868975  0.09600545126253725  1.0000
  Si  Si7       1.0  0.14064062348845638  0.23281131493405677  0.09476725393095496  1.0000
  Si  Si8       1.0  0.8450225091838272  0.2381239093083584  0.8854638795020727  1.0000
  Si  Si9       1.0  0.6793885325626543  0.379276258019408  0.6653011237836886  1.0000
  Si  Si10      1.0  0.6813709705720635  0.584212998333755  0.6656141783290883  1.0000
  Si  Si11      1.0  0.28713307523573395  0.5861939158597593  0.3220630639833504  1.0000
  Si  Si12      1.0  0.7871357064995017  0.8785916008272245  0.3177436056660347  1.0000
  Si  Si13      1.0  0.18833338491450013  0.8801997751540613  0.663819146227071  1.0000
  Si  Si14      1.0  0.18047241554379723  0.0861772322707926  0.6634004730128928  1.0000
  Si  Si15      1.0  0.7865387584831688  0.08204133911487434  0.31923226653955467  1.0000
  Si  Si16      1.0  0.3839046122682683  0.3810060845873998  0.6889292248282746  1.0000
  Si  Si17      1.0  0.5875634708394608  0.37802506545163644  0.30687255521311985  1.0000
  Si  Si18      1.0  0.5855146705626043  0.5822905525208465  0.3077633249573945  1.0000
  Si  Si19      1.0  0.3854961803519027  0.5848676092200162  0.6833121646821543  1.0000
  Si  Si20      1.0  0.08677652489203273  0.8796749018425055  0.3063559027784391  1.0000
  Si  Si21      1.0  0.08414305138778047  0.08414618820667812  0.30596494287018744  1.0000
  Si  Si22      1.0  0.8829915934803427  0.08529892424204258  0.6799892142595687  1.0000
  O   O1        1.0  0.5051796550369244  0.2081190106018879  0.9695901812718936  1.0000
  O   O2        1.0  0.5097319595873055  0.7516115601119318  0.9651367903628071  1.0000
  O   O3        1.0  0.00966755155565531  0.7067987942477119  0.9667641742278028  1.0000
  O   O4        1.0  0.004389587012855584  0.25074008409705917  0.9601202424695323  1.0000
  O   O5        1.0  0.2997533338139037  0.14659791981178433  0.7664086917711427  1.0000
  O   O6        1.0  0.6679044381311118  0.14397472772677397  0.21822520569954912  1.0000
  O   O7        1.0  0.6700517380912453  0.8172247186043025  0.21276662158251752  1.0000
  O   O8        1.0  0.3116368913717352  0.82300206282859  0.7677511191685256  1.0000
  O   O9        1.0  0.8050975495829121  0.6412831200150413  0.7680844934719362  1.0000
  O   O10       1.0  0.17365175931078092  0.6521286702104417  0.22372796461732714  1.0000
  O   O11       1.0  0.15432071697196068  0.315352640619099  0.2155215375430866  1.0000
  O   O12       1.0  0.8010271149112276  0.3221659725838865  0.7713849863565144  1.0000
  O   O13       1.0  0.3258805445572507  0.3225420104045277  0.8072345007434227  1.0000
  O   O14       1.0  0.6479211919806773  0.3197275089028319  0.19054744176229627  1.0000
  O   O15       1.0  0.6433392405584818  0.6407863244255008  0.19050082167517693  1.0000
  O   O16       1.0  0.3217567716119142  0.6460112774710531  0.7937943695316455  1.0000
  O   O17       1.0  0.8188106749761668  0.8172783917218686  0.8071183274773819  1.0000
  O   O18       1.0  0.14249449285003832  0.8244430713748732  0.1826154098691936  1.0000
  O   O19       1.0  0.14129986769784952  0.14000500947543132  0.18470855514351783  1.0000
  O   O20       1.0  0.8165575763017306  0.14647706020331253  0.7874444511578819  1.0000
  O   O21       1.0  0.2671813925834967  0.22655857522606748  0.022145062602767426  1.0000
  O   O22       1.0  0.7669843960105264  0.23410809052962922  0.0186362249646401  1.0000
  O   O23       1.0  0.7723675197587259  0.718778621518857  0.025188952046576805  1.0000
  O   O24       1.0  0.2694220729763863  0.7399286407950278  0.01642128019373578  1.0000
  O   O25       1.0  0.4280451964424597  0.3556023804665427  0.26952926108089675  1.0000
  O   O26       1.0  0.5416907489580731  0.3580261975290917  0.7127862201939963  1.0000
  O   O27       1.0  0.5445914939872282  0.6069557625432122  0.7148363423501289  1.0000
  O   O28       1.0  0.426171970599722  0.6019624189586147  0.27498400894531533  1.0000
  O   O29       1.0  0.9291560832684099  0.8566936853391318  0.2810153430916831  1.0000
  O   O30       1.0  0.053789051413237414  0.8523827151729538  0.7151105818681365  1.0000
  O   O31       1.0  0.04147263423100819  0.10791034861513342  0.7084587595541137  1.0000
  O   O32       1.0  0.9254168935582383  0.10531435236530529  0.2762004022386095  1.0000
  O   O33       1.0  0.2950397339499537  0.3557761723561963  0.5142590694325655  1.0000
  O   O34       1.0  0.6654536071852708  0.3530061435340107  0.4851007622592934  1.0000
  O   O35       1.0  0.6656418998242312  0.6086952559290287  0.48460437725000843  1.0000
  O   O36       1.0  0.30434025895459205  0.606125090508242  0.504838112015006  1.0000
  O   O37       1.0  0.792063595713014  0.8548259658321704  0.49703496394358077  1.0000
  O   O38       1.0  0.17296245196865503  0.8556361007167859  0.4824738729689881  1.0000
  O   O39       1.0  0.16689549228675232  0.11000039773495328  0.4823593768899714  1.0000
  O   O40       1.0  0.799204577879588  0.10219600122787455  0.5010114329508636  1.0000
  O   O41       1.0  0.22892424715568607  0.48703619331638176  0.27598488106096536  1.0000
  O   O42       1.0  0.7232745461373751  0.4815511055779707  0.6994043348131331  1.0000
  O   O43       1.0  0.7420874989392751  0.9803137841356003  0.2763063580791638  1.0000
  O   O44       1.0  0.22461166772929003  0.9836993162306136  0.6993126196881854  1.0000
  O   O45       1.0  0.363102301372498  0.48358603268440314  0.7301334735604594  1.0000
  O   O46       1.0  0.612783336453417  0.480281224601038  0.2691048853085336  1.0000
  O   O47       1.0  0.8622302560395481  0.9855893301069903  0.7367918448482357  1.0000
  O   O48       1.0  0.10878928845543151  0.9819892964838048  0.26708923783617294  1.0000
