data_image0
_chemical_formula_structural       Ge2Si22O48
_chemical_formula_sum              "Ge2 Si22 O48"
_cell_length_a       10.763782023397095
_cell_length_b       15.589436188952916
_cell_length_c       9.204643041753172
_cell_angle_alpha    90.0387739088577
_cell_angle_beta     105.48478450074843
_cell_angle_gamma    89.99398737142278

_space_group_name_H-M_alt    "P 1"
_space_group_IT_number       1

loop_
  _space_group_symop_operation_xyz
  'x, y, z'

loop_
  _atom_site_type_symbol
  _atom_site_label
  _atom_site_symmetry_multiplicity
  _atom_site_fract_x
  _atom_site_fract_y
  _atom_site_fract_z
  _atom_site_occupancy
  Ge  Ge1       1.0  0.2871673071066744  0.3795124287539666  0.3205228681574775  1.0000
  Ge  Ge2       1.0  0.19041414518961522  0.8794437596714065  0.6590429464030133  1.0000
  Si  Si1       1.0  0.33854580078685614  0.22830475148469023  0.8877044959979575  1.0000
  Si  Si2       1.0  0.6331794875887455  0.22188183264700653  0.09589486545647086  1.0000
  Si  Si3       1.0  0.6530083499105468  0.731577576012028  0.09748615455347207  1.0000
  Si  Si4       1.0  0.35793820061112364  0.7377037404462036  0.8871120046160016  1.0000
  Si  Si5       1.0  0.8539251336625063  0.7212217872479522  0.8843738131580633  1.0000
  Si  Si6       1.0  0.1482186019051542  0.7290643814593745  0.08972133102603215  1.0000
  Si  Si7       1.0  0.1288231685082641  0.2363635951841148  0.09264686067859357  1.0000
  Si  Si8       1.0  0.8342084322448925  0.23310596595420052  0.879783592902499  1.0000
  Si  Si9       1.0  0.6820499894331628  0.377207665387925  0.6583744534694161  1.0000
  Si  Si10      1.0  0.6883335587730155  0.5814365150350296  0.6607240593832677  1.0000
  Si  Si11      1.0  0.29574391313787607  0.5883364666451292  0.3198297629160982  1.0000
  Si  Si12      1.0  0.795297986387819  0.8764501971975734  0.32075499559849113  1.0000
  Si  Si13      1.0  0.18142792383578096  0.08861023056198915  0.657946043318714  1.0000
  Si  Si14      1.0  0.7889278786848719  0.0801841757898819  0.3181676988432582  1.0000
  Si  Si15      1.0  0.39023726212037874  0.38053937002109733  0.6852671244281868  1.0000
  Si  Si16      1.0  0.5860281292537386  0.37637963331040514  0.2986668994691824  1.0000
  Si  Si17      1.0  0.5895725902261199  0.58095599896112  0.3010690781764721  1.0000
  Si  Si18      1.0  0.39513748080191363  0.5851447923227574  0.6792360020020618  1.0000
  Si  Si19      1.0  0.891308795573513  0.876022023072343  0.6808570086595347  1.0000
  Si  Si20      1.0  0.08786354257994321  0.8793413893373969  0.2947695708445813  1.0000
  Si  Si21      1.0  0.08166556000802196  0.08401699817651294  0.2990115796924508  1.0000
  Si  Si22      1.0  0.8884473952503705  0.08039525512047943  0.6780968561385633  1.0000
  O   O1        1.0  0.48430632076340924  0.20084746498006145  0.9924566577350581  1.0000
  O   O2        1.0  0.5126211415736531  0.7531730601739207  0.9749539339041497  1.0000
  O   O3        1.0  0.009586829014172956  0.702705279727632  0.9665617876304068  1.0000
  O   O4        1.0  0.9826077492697199  0.25552339646766703  0.9818563807982517  1.0000
  O   O5        1.0  0.2968334647510403  0.15336989221112177  0.7535917189545634  1.0000
  O   O6        1.0  0.6692760820633145  0.14102604984190736  0.21949154553837757  1.0000
  O   O7        1.0  0.6799465434475147  0.8127572465193589  0.22100800603604268  1.0000
  O   O8        1.0  0.32394700972455254  0.8205132482633009  0.7668337460051423  1.0000
  O   O9        1.0  0.8091017459793811  0.640765337978496  0.7612606476659955  1.0000
  O   O10       1.0  0.18039548498068242  0.6526742506127345  0.2222116662641571  1.0000
  O   O11       1.0  0.15498199845430277  0.3181564869378464  0.21579391553602145  1.0000
  O   O12       1.0  0.7982450929386269  0.314017158979677  0.7567903672405493  1.0000
  O   O13       1.0  0.33659448676878306  0.3257425858881317  0.8109433351237361  1.0000
  O   O14       1.0  0.6464873970282874  0.31681366183010873  0.18407007538123887  1.0000
  O   O15       1.0  0.6519041869189766  0.6378128168701599  0.18519437313490658  1.0000
  O   O16       1.0  0.3352526113904222  0.643709239907781  0.7957893701469845  1.0000
  O   O17       1.0  0.8308851003648277  0.8163424820593803  0.7956362835700912  1.0000
  O   O18       1.0  0.1409064291978013  0.8251078830215981  0.16810100593170374  1.0000
  O   O19       1.0  0.13967822480104292  0.1418367042885569  0.1805647945169082  1.0000
  O   O20       1.0  0.8251876799615616  0.13839919216325827  0.7920692150855807  1.0000
  O   O21       1.0  0.23626052051877616  0.23276936158135467  0.9934655806325293  1.0000
  O   O22       1.0  0.7332291382263055  0.22635244918420824  0.987068701783091  1.0000
  O   O23       1.0  0.7707076892826711  0.7229866322583623  0.012480375340113523  1.0000
  O   O24       1.0  0.26768192887251124  0.7364936763428892  0.00757716873985734  1.0000
  O   O25       1.0  0.42883549652339376  0.3512348064608146  0.2658907713940515  1.0000
  O   O26       1.0  0.5453983781491499  0.3563113343456055  0.7057187321648574  1.0000
  O   O27       1.0  0.552717372850011  0.6060461325388694  0.7084000875356296  1.0000
  O   O28       1.0  0.43347832721792084  0.6059916174147119  0.27252532754053943  1.0000
  O   O29       1.0  0.9323674478487122  0.8562328502645474  0.2739240244668711  1.0000
  O   O30       1.0  0.048859161649176336  0.8513577482782714  0.7140450502322444  1.0000
  O   O31       1.0  0.04462855324007225  0.10570404436537653  0.7077540849610986  1.0000
  O   O32       1.0  0.9238843509677033  0.10384787598469268  0.2686580440724359  1.0000
  O   O33       1.0  0.29940266715751856  0.35393985483796325  0.5125986970484318  1.0000
  O   O34       1.0  0.6670454666936599  0.35481054856025335  0.47665878311970533  1.0000
  O   O35       1.0  0.6730968125755427  0.602756555857023  0.47840510974036154  1.0000
  O   O36       1.0  0.3131543265013613  0.6092062698620363  0.5025706272710724  1.0000
  O   O37       1.0  0.8105430558134104  0.8543616734712224  0.5026972691076793  1.0000
  O   O38       1.0  0.17797556740009704  0.851976705965511  0.4675576431079366  1.0000
  O   O39       1.0  0.16242451673777109  0.11006025580571856  0.47520310839592145  1.0000
  O   O40       1.0  0.8054697593506391  0.10157338114909592  0.5005828556834007  1.0000
  O   O41       1.0  0.24102822823072817  0.4881512416636514  0.2764055826410079  1.0000
  O   O42       1.0  0.7293479289090026  0.47868619006478175  0.6992928099999379  1.0000
  O   O43       1.0  0.7463506076413403  0.9776259916167994  0.27956074185180113  1.0000
  O   O44       1.0  0.23616782673916392  0.9884245950059587  0.7001689516281724  1.0000
  O   O45       1.0  0.37103886523581675  0.48366958522942444  0.7232665124770071  1.0000
  O   O46       1.0  0.6066494464093057  0.47854678882737606  0.255323311599603  1.0000
  O   O47       1.0  0.8705426892191861  0.9782217817204083  0.7243995895507279  1.0000
  O   O48       1.0  0.10830822252095287  0.9824460119742316  0.25809975807332425  1.0000
