data_image0
_chemical_formula_structural       Ge2Si22O48
_chemical_formula_sum              "Ge2 Si22 O48"
_cell_length_a       10.703334080792205
_cell_length_b       15.596223123860666
_cell_length_c       9.19708057591997
_cell_angle_alpha    90.20550988198524
_cell_angle_beta     105.50965061213923
_cell_angle_gamma    89.76727866609252

_space_group_name_H-M_alt    "P 1"
_space_group_IT_number       1

loop_
  _space_group_symop_operation_xyz
  'x, y, z'

loop_
  _atom_site_type_symbol
  _atom_site_label
  _atom_site_symmetry_multiplicity
  _atom_site_fract_x
  _atom_site_fract_y
  _atom_site_fract_z
  _atom_site_occupancy
  Ge  Ge1       1.0  0.3461916853746486  0.22927213784804712  0.8896769098284337  1.0000
  Ge  Ge2       1.0  0.1793928587771761  0.8781980602336299  0.6627550107469035  1.0000
  Si  Si1       1.0  0.6464541324571268  0.2270680238043452  0.102261996448369  1.0000
  Si  Si2       1.0  0.6461512842402687  0.7325745786010252  0.10248847680274384  1.0000
  Si  Si3       1.0  0.3501475336400271  0.7381306541445941  0.8911890158968984  1.0000
  Si  Si4       1.0  0.8451384556218356  0.7242614616622829  0.8880277449435844  1.0000
  Si  Si5       1.0  0.14019714406532882  0.7278425575951142  0.0920998196528399  1.0000
  Si  Si6       1.0  0.13717397335305262  0.23770265983479402  0.10092398392902516  1.0000
  Si  Si7       1.0  0.8458231138887131  0.23900324503067466  0.8912906122995871  1.0000
  Si  Si8       1.0  0.28298334278611237  0.38105003911705104  0.3223736259259745  1.0000
  Si  Si9       1.0  0.6748860010468105  0.37932323529391315  0.6669554719385422  1.0000
  Si  Si10      1.0  0.6777498946008378  0.5842479892769914  0.6643173731603315  1.0000
  Si  Si11      1.0  0.2856662485771235  0.5856978193798523  0.31928247791340014  1.0000
  Si  Si12      1.0  0.7825700212006853  0.8791059884322897  0.32541579827504746  1.0000
  Si  Si13      1.0  0.17456148741962246  0.08733697926313137  0.65951916824262  1.0000
  Si  Si14      1.0  0.779175704331443  0.08117965969123334  0.32474634428941596  1.0000
  Si  Si15      1.0  0.37964298550529846  0.38398815907794304  0.681140926112955  1.0000
  Si  Si16      1.0  0.5791178670599676  0.37818996426207446  0.3074299258176646  1.0000
  Si  Si17      1.0  0.5822605529446985  0.5823316292341816  0.305372163283587  1.0000
  Si  Si18      1.0  0.3821125139836103  0.5880942396328538  0.6777690311346105  1.0000
  Si  Si19      1.0  0.8799984695532814  0.8790911257966605  0.6866107231015396  1.0000
  Si  Si20      1.0  0.07804607651122511  0.8796822596046268  0.2984285184408522  1.0000
  Si  Si21      1.0  0.07395987789693617  0.0831854554950715  0.30148208110455077  1.0000
  Si  Si22      1.0  0.881837530399362  0.08367775703270576  0.6852187256005313  1.0000
  O   O1        1.0  0.5141761652096292  0.2073642162747338  0.9621703197247498  1.0000
  O   O2        1.0  0.507163971838539  0.7516386337990195  0.9738601847054061  1.0000
  O   O3        1.0  0.0030459221932516733  0.7056032427779751  0.9617116886420083  1.0000
  O   O4        1.0  0.003427924219965772  0.2594192949231074  0.9645704905018229  1.0000
  O   O5        1.0  0.2984631180427243  0.14694306519933623  0.7525419149615735  1.0000
  O   O6        1.0  0.6636053909290915  0.14509527627098287  0.22348122840814702  1.0000
  O   O7        1.0  0.6684073234195999  0.8140600842362602  0.22581994327290653  1.0000
  O   O8        1.0  0.3153003562387761  0.8214663104617681  0.7726135618944877  1.0000
  O   O9        1.0  0.7982258593390853  0.6435780107080251  0.7659563199713861  1.0000
  O   O10       1.0  0.16732738579473436  0.6467795035883189  0.21582683790590995  1.0000
  O   O11       1.0  0.16243681734604712  0.3201585502623142  0.22273623862632372  1.0000
  O   O12       1.0  0.7937835628106271  0.3193181699034766  0.7705198113646347  1.0000
  O   O13       1.0  0.31554360125886866  0.33174657670848784  0.8021452673199486  1.0000
  O   O14       1.0  0.6401951129998293  0.3196870204375269  0.19169991276741957  1.0000
  O   O15       1.0  0.6449853172959102  0.6387702948910082  0.18946116837305568  1.0000
  O   O16       1.0  0.3212164194190482  0.6454787488028658  0.7956314312724414  1.0000
  O   O17       1.0  0.8179322969866883  0.8197178990048023  0.8004563941487237  1.0000
  O   O18       1.0  0.13093311956835452  0.8223454681748095  0.1747391132632339  1.0000
  O   O19       1.0  0.1273689616327943  0.1439086106592469  0.18361217937794722  1.0000
  O   O20       1.0  0.8226238375726054  0.14424849878096083  0.8009531401527386  1.0000
  O   O21       1.0  0.2675577686630804  0.22482681106598704  0.035970220066493946  1.0000
  O   O22       1.0  0.7730771209139213  0.23538441744197725  0.029998651837256207  1.0000
  O   O23       1.0  0.768472903453875  0.7252743769743514  0.02307961835375279  1.0000
  O   O24       1.0  0.2647466211398762  0.7375591261534759  0.017365482911422966  1.0000
  O   O25       1.0  0.4197127860483428  0.35947710091569857  0.27270374008887033  1.0000
  O   O26       1.0  0.5378702851109364  0.36027427447777405  0.7166890478693888  1.0000
  O   O27       1.0  0.5412089296755699  0.6077944029330911  0.7125374258910806  1.0000
  O   O28       1.0  0.4234466599589642  0.6037513993981538  0.27054963026958045  1.0000
  O   O29       1.0  0.9195649968125111  0.8628954472745807  0.2742299698516256  1.0000
  O   O30       1.0  0.03855486249341061  0.8534761536610035  0.7228594450468586  1.0000
  O   O31       1.0  0.03998851263877889  0.10602255366185687  0.7148491122420378  1.0000
  O   O32       1.0  0.9143844333831479  0.0980740175347876  0.27086440837464554  1.0000
  O   O33       1.0  0.3001665755754654  0.35733634062771946  0.5043030626719434  1.0000
  O   O34       1.0  0.6574039275271104  0.3532748140521311  0.4856692746690449  1.0000
  O   O35       1.0  0.6618285304827128  0.6079158337166557  0.48281173592166715  1.0000
  O   O36       1.0  0.3026254502652419  0.6127434418796196  0.500095650361999  1.0000
  O   O37       1.0  0.8014467278933073  0.8561925743181985  0.5077990323186548  1.0000
  O   O38       1.0  0.16347857880593256  0.8484384892662984  0.4713980568765997  1.0000
  O   O39       1.0  0.1523873425157236  0.11159794918655704  0.4774680153932167  1.0000
  O   O40       1.0  0.7993780799237067  0.10547209166196511  0.5071662226566747  1.0000
  O   O41       1.0  0.2381443848980721  0.48354987874458927  0.2867287598006039  1.0000
  O   O42       1.0  0.720657631288714  0.4816034765258165  0.7005387554947923  1.0000
  O   O43       1.0  0.7283832185922071  0.9798589914357987  0.2889108868938984  1.0000
  O   O44       1.0  0.22791615388267333  0.9868293735081641  0.6978046395153957  1.0000
  O   O45       1.0  0.35515026989653536  0.48660348100611556  0.7170886176731047  1.0000
  O   O46       1.0  0.6070657276708756  0.4797014026112567  0.26765936956572695  1.0000
  O   O47       1.0  0.8595373616416154  0.9817224059005285  0.7291370556423503  1.0000
  O   O48       1.0  0.10725491873777901  0.9818765444711971  0.2641074209875753  1.0000
