data_image0
_chemical_formula_structural       Ge2Si22O48
_chemical_formula_sum              "Ge2 Si22 O48"
_cell_length_a       10.697557259085016
_cell_length_b       15.603958222874839
_cell_length_c       9.196760900773793
_cell_angle_alpha    90.0711159464619
_cell_angle_beta     105.60341535415186
_cell_angle_gamma    89.71701785754041

_space_group_name_H-M_alt    "P 1"
_space_group_IT_number       1

loop_
  _space_group_symop_operation_xyz
  'x, y, z'

loop_
  _atom_site_type_symbol
  _atom_site_label
  _atom_site_symmetry_multiplicity
  _atom_site_fract_x
  _atom_site_fract_y
  _atom_site_fract_z
  _atom_site_occupancy
  Ge  Ge1       1.0  0.34592578049657535  0.2264319934829813  0.8858054834030183  1.0000
  Ge  Ge2       1.0  0.7784343761634595  0.0826145982534021  0.32507789645612656  1.0000
  Si  Si1       1.0  0.6451004934519559  0.23124007805947122  0.09747148356232957  1.0000
  Si  Si2       1.0  0.6400797961391254  0.7328677212200607  0.09829116996902783  1.0000
  Si  Si3       1.0  0.34426853812978003  0.7387492655382923  0.8884546784872905  1.0000
  Si  Si4       1.0  0.8434310964996335  0.7230153664157  0.8876123916187009  1.0000
  Si  Si5       1.0  0.13910450216451772  0.7281807091179608  0.09643977617860071  1.0000
  Si  Si6       1.0  0.141458774040933  0.23656026659136808  0.10191674254697508  1.0000
  Si  Si7       1.0  0.8483976716560083  0.2382408062065007  0.8939627351453653  1.0000
  Si  Si8       1.0  0.28303910882496036  0.38160982870372034  0.31963709424712317  1.0000
  Si  Si9       1.0  0.6754040703989961  0.37723676246306076  0.6659889086439592  1.0000
  Si  Si10      1.0  0.6784699821226694  0.5829020472564712  0.6639791663645817  1.0000
  Si  Si11      1.0  0.28450068857456956  0.5851363326230359  0.32198298859350594  1.0000
  Si  Si12      1.0  0.7818279495021473  0.876707979591052  0.3241033172588023  1.0000
  Si  Si13      1.0  0.17612755705401975  0.8764053153639997  0.6624647810509253  1.0000
  Si  Si14      1.0  0.17550409402392636  0.08151496194719733  0.6634521930653516  1.0000
  Si  Si15      1.0  0.3799472781495322  0.3825474042015573  0.6801444150511797  1.0000
  Si  Si16      1.0  0.5791381040633071  0.3790901590847737  0.30666985944216824  1.0000
  Si  Si17      1.0  0.581060405863581  0.5835360711343013  0.3063366213556916  1.0000
  Si  Si18      1.0  0.3827711452138968  0.5859480977545717  0.6812345883972644  1.0000
  Si  Si19      1.0  0.8830629957012234  0.8777720521287895  0.6854738065780028  1.0000
  Si  Si20      1.0  0.07837630259929555  0.8794369061329845  0.30415397172885006  1.0000
  Si  Si21      1.0  0.08005663717830495  0.08319517550781662  0.30460976202322426  1.0000
  Si  Si22      1.0  0.8836019750417603  0.08214320213924177  0.6926862992693544  1.0000
  O   O1        1.0  0.5166309425906432  0.2125475766555551  0.9518416578511933  1.0000
  O   O2        1.0  0.5007259218277224  0.7562696614399175  0.9719543441665991  1.0000
  O   O3        1.0  0.0005414339757214212  0.7056273268954422  0.9688282239136828  1.0000
  O   O4        1.0  0.00670866583183713  0.25723794506854736  0.9657287360640722  1.0000
  O   O5        1.0  0.30192185258994964  0.13707448220464968  0.7631347382467755  1.0000
  O   O6        1.0  0.6525437695113678  0.1492685299702962  0.21821345492051486  1.0000
  O   O7        1.0  0.667446438914948  0.8114696250654567  0.226701116239621  1.0000
  O   O8        1.0  0.2995095309746616  0.8189104534027823  0.7647536603663124  1.0000
  O   O9        1.0  0.7995879013838998  0.6410844703411737  0.767768107014277  1.0000
  O   O10       1.0  0.16646097277267166  0.6473243186167171  0.22054606987807365  1.0000
  O   O11       1.0  0.16333747627160533  0.3198496699665538  0.2213568896423157  1.0000
  O   O12       1.0  0.7948330516641342  0.3166027444015006  0.768546909192442  1.0000
  O   O13       1.0  0.3095258702828722  0.3267286707105037  0.7911931358125196  1.0000
  O   O14       1.0  0.6391216656038555  0.323836022403923  0.18639175300228758  1.0000
  O   O15       1.0  0.6381952332650672  0.6386508586527455  0.18399550093023276  1.0000
  O   O16       1.0  0.32259510230045785  0.6443907013130197  0.7982032305221738  1.0000
  O   O17       1.0  0.8205924416525593  0.8176837311987893  0.797822201740987  1.0000
  O   O18       1.0  0.13437855145409053  0.8217674008503393  0.18334900310880656  1.0000
  O   O19       1.0  0.13830071770126115  0.14321702434231948  0.1895756288729332  1.0000
  O   O20       1.0  0.826539272563688  0.14115391260654622  0.8119386617659675  1.0000
  O   O21       1.0  0.2717153848987521  0.22552065612033145  0.036132140846165506  1.0000
  O   O22       1.0  0.7762718865551259  0.23828260380311336  0.03327000324431223  1.0000
  O   O23       1.0  0.7606457206186402  0.7255639108663232  0.016493732780779473  1.0000
  O   O24       1.0  0.26024600278205123  0.7372314952991047  0.016018548248161017  1.0000
  O   O25       1.0  0.4197606909994767  0.3600710724216104  0.27041872793253163  1.0000
  O   O26       1.0  0.5383524860328643  0.35818967815871705  0.716165424530716  1.0000
  O   O27       1.0  0.5414829674690116  0.6063116310852057  0.7117685939340215  1.0000
  O   O28       1.0  0.4226265621932425  0.6051182312335177  0.27564524820686365  1.0000
  O   O29       1.0  0.9185188988355972  0.8633709506983777  0.27099566220791116  1.0000
  O   O30       1.0  0.04196090291559512  0.8559911305545993  0.7175523552744801  1.0000
  O   O31       1.0  0.04214617434772584  0.102482702169063  0.7201090768840746  1.0000
  O   O32       1.0  0.9200672204555433  0.10247401005393743  0.2638035396371729  1.0000
  O   O33       1.0  0.30078734067105495  0.3593726603562515  0.5019045724515093  1.0000
  O   O34       1.0  0.6572032004568223  0.35177484171707835  0.48419853785162315  1.0000
  O   O35       1.0  0.6634172717780279  0.6090071431029772  0.4831639305681245  1.0000
  O   O36       1.0  0.29998448113568893  0.6088965378738715  0.5036345317845946  1.0000
  O   O37       1.0  0.8037389055827817  0.8543820162839936  0.5070995550257139  1.0000
  O   O38       1.0  0.15598020966326057  0.85011355847881  0.4807910954350581  1.0000
  O   O39       1.0  0.1542928282044851  0.10985565114443338  0.48300575454834205  1.0000
  O   O40       1.0  0.7977202263154827  0.11013325812021844  0.5179042056871285  1.0000
  O   O41       1.0  0.23672069808042326  0.48371869768866826  0.28231254560858393  1.0000
  O   O42       1.0  0.7202433331559581  0.4798093365666479  0.6980548053875325  1.0000
  O   O43       1.0  0.7207316233757111  0.9760408046331462  0.2845136041519283  1.0000
  O   O44       1.0  0.2199153501985309  0.9788921617475197  0.6923998771556068  1.0000
  O   O45       1.0  0.3582488849393705  0.4844426537830696  0.7237351860373636  1.0000
  O   O46       1.0  0.6068777887559047  0.48104983426543996  0.27046435000442  1.0000
  O   O47       1.0  0.8588863418091179  0.9795681543445692  0.7295036788538121  1.0000
  O   O48       1.0  0.11047821848269998  0.9811235448130408  0.26951084448651647  1.0000
