data_image0
_chemical_formula_structural       Ge2Si22O48
_chemical_formula_sum              "Ge2 Si22 O48"
_cell_length_a       10.758617011490596
_cell_length_b       15.594993814152014
_cell_length_c       9.201945641220323
_cell_angle_alpha    90.13606520574346
_cell_angle_beta     105.52105467498231
_cell_angle_gamma    89.77203088156539

_space_group_name_H-M_alt    "P 1"
_space_group_IT_number       1

loop_
  _space_group_symop_operation_xyz
  'x, y, z'

loop_
  _atom_site_type_symbol
  _atom_site_label
  _atom_site_symmetry_multiplicity
  _atom_site_fract_x
  _atom_site_fract_y
  _atom_site_fract_z
  _atom_site_occupancy
  Ge  Ge1       1.0  0.34385207904745557  0.22634077437741487  0.8859117396741837  1.0000
  Ge  Ge2       1.0  0.6734573122527007  0.3826221666932559  0.6610764620698821  1.0000
  Si  Si1       1.0  0.6428288414863644  0.2320975654783918  0.09446150299970672  1.0000
  Si  Si2       1.0  0.6198663452651643  0.7428030593670611  0.09583014252241245  1.0000
  Si  Si3       1.0  0.3251147104989338  0.7401821309166046  0.8838695220289017  1.0000
  Si  Si4       1.0  0.8243508532747744  0.7320092634689888  0.8837807455079658  1.0000
  Si  Si5       1.0  0.11916986594889367  0.728034984628971  0.09369498454753317  1.0000
  Si  Si6       1.0  0.13890044199761828  0.2371064081366311  0.10083231745084094  1.0000
  Si  Si7       1.0  0.8474201182818693  0.24079750334615732  0.8903795407670833  1.0000
  Si  Si8       1.0  0.2796491430456058  0.3830171962494821  0.31846430864640407  1.0000
  Si  Si9       1.0  0.6683869696901582  0.5912919008386326  0.6571471192391429  1.0000
  Si  Si10      1.0  0.27538455585219235  0.587120218720372  0.3181355932918639  1.0000
  Si  Si11      1.0  0.7735569375208257  0.8845847968193112  0.3205471532488958  1.0000
  Si  Si12      1.0  0.16582107083398256  0.8790269364914014  0.6570662212104945  1.0000
  Si  Si13      1.0  0.17099063269186043  0.08397100240500166  0.660099984639931  1.0000
  Si  Si14      1.0  0.7785485788684059  0.08829309672234828  0.3224540024981929  1.0000
  Si  Si15      1.0  0.3744688888054429  0.383596280171815  0.6790027138943341  1.0000
  Si  Si16      1.0  0.5724045931559424  0.3838210947040312  0.2940240255428785  1.0000
  Si  Si17      1.0  0.5686913402959517  0.5882271942765872  0.29757212746899464  1.0000
  Si  Si18      1.0  0.37501952979156195  0.5880628327901644  0.6772237846207874  1.0000
  Si  Si19      1.0  0.8744775481473783  0.8834231188922896  0.6795835680015135  1.0000
  Si  Si20      1.0  0.06726329583370362  0.8815542707494335  0.2989993608958512  1.0000
  Si  Si21      1.0  0.07206626018410069  0.0849411488642776  0.3019571722382261  1.0000
  Si  Si22      1.0  0.8795935394292731  0.08790652812199189  0.6816643681709095  1.0000
  O   O1        1.0  0.5120997986211736  0.20712192305543947  0.9562969864946395  1.0000
  O   O2        1.0  0.472933635006553  0.7642793493258869  0.9869305321732342  1.0000
  O   O3        1.0  0.9726180679906314  0.7064583221609931  0.9844825438307062  1.0000
  O   O4        1.0  0.004646586652281978  0.25723787624838795  0.9658278751552564  1.0000
  O   O5        1.0  0.2978065931949205  0.13883351717069276  0.7590813594122483  1.0000
  O   O6        1.0  0.6644688780283874  0.15337441982720726  0.2225966165721491  1.0000
  O   O7        1.0  0.6548758516187452  0.8234915368147846  0.22020714914779602  1.0000
  O   O8        1.0  0.2859947195448522  0.8188815995127452  0.7567463845228309  1.0000
  O   O9        1.0  0.7846557830743393  0.6548821356675747  0.7535859255401902  1.0000
  O   O10       1.0  0.15534594438875696  0.6474017045480667  0.21768056372005215  1.0000
  O   O11       1.0  0.16169301197341165  0.32046693191940506  0.2201764858757936  1.0000
  O   O12       1.0  0.8058308566812694  0.32228866593572303  0.7684933840402365  1.0000
  O   O13       1.0  0.30833013387763614  0.3274042382747992  0.7934213280064475  1.0000
  O   O14       1.0  0.6292894146739505  0.3273232917065459  0.17268320347227437  1.0000
  O   O15       1.0  0.6270218510423784  0.6478538071869304  0.18187949916465723  1.0000
  O   O16       1.0  0.3167510395685106  0.6452421357596193  0.7967892798341429  1.0000
  O   O17       1.0  0.8152702441997667  0.8277039849350906  0.7995458503026477  1.0000
  O   O18       1.0  0.12462757080880267  0.8226052067936115  0.18097293715105334  1.0000
  O   O19       1.0  0.13151485391286513  0.14413708211649656  0.18734837541057844  1.0000
  O   O20       1.0  0.820822972846645  0.1463139473230764  0.8000463095412443  1.0000
  O   O21       1.0  0.26792671490600284  0.22471238113306075  0.034558542893112915  1.0000
  O   O22       1.0  0.7699116422686182  0.2404711826867893  0.024305426143010934  1.0000
  O   O23       1.0  0.7253283662227384  0.7367039319109012  0.9938119456153444  1.0000
  O   O24       1.0  0.2248268682458414  0.7345885949989351  0.9921829218323964  1.0000
  O   O25       1.0  0.41506334829976277  0.3636835254235779  0.26667147788873385  1.0000
  O   O26       1.0  0.5324280751835656  0.35800760218760297  0.7195500897949083  1.0000
  O   O27       1.0  0.5321905305702125  0.6097918265924318  0.7074875709673889  1.0000
  O   O28       1.0  0.4105317404239129  0.6078523033560606  0.2669756564326294  1.0000
  O   O29       1.0  0.9091281599141001  0.8633273072523796  0.270098484589585  1.0000
  O   O30       1.0  0.030414830744552538  0.8575702234979194  0.7069961998694939  1.0000
  O   O31       1.0  0.03731385712405861  0.10929244809723974  0.7117383606339877  1.0000
  O   O32       1.0  0.9147332366570818  0.10603133456157411  0.2721979259082718  1.0000
  O   O33       1.0  0.29875445045117854  0.3591644051708058  0.5004457931084271  1.0000
  O   O34       1.0  0.6572899918414458  0.3553750919569674  0.46864660130047314  1.0000
  O   O35       1.0  0.6491030119811058  0.6131177382716495  0.47457995193584446  1.0000
  O   O36       1.0  0.29317574988352374  0.6117647944898735  0.5000172289408027  1.0000
  O   O37       1.0  0.790438236011925  0.861022570092264  0.502521528624749  1.0000
  O   O38       1.0  0.14859788812709318  0.8554003856453549  0.4751966380491163  1.0000
  O   O39       1.0  0.15378055987229025  0.10863279589057338  0.4789734549753462  1.0000
  O   O40       1.0  0.7970857338543289  0.11176520190389741  0.5047605418851776  1.0000
  O   O41       1.0  0.23080646366524052  0.4847164322176859  0.2831188404441208  1.0000
  O   O42       1.0  0.7227733164555585  0.4910591012648589  0.6998219792902866  1.0000
  O   O43       1.0  0.7280734529056828  0.9870749015916306  0.2849212835379988  1.0000
  O   O44       1.0  0.21065917352825242  0.9809032190963597  0.6944719069950681  1.0000
  O   O45       1.0  0.35175946280717757  0.48601946599402873  0.7184446771898018  1.0000
  O   O46       1.0  0.5961297337663068  0.48648716940089043  0.25696555330508697  1.0000
  O   O47       1.0  0.856285103762436  0.9859777684408129  0.723144733380472  1.0000
  O   O48       1.0  0.09533422224719501  0.9829742294162741  0.25870280611186897  1.0000
