data_image0
_chemical_formula_structural       Ge2Si22O48
_chemical_formula_sum              "Ge2 Si22 O48"
_cell_length_a       10.666337935388475
_cell_length_b       15.60732767343495
_cell_length_c       9.210916526242134
_cell_angle_alpha    89.7791423400668
_cell_angle_beta     105.56379369189474
_cell_angle_gamma    90.06142406274695

_space_group_name_H-M_alt    "P 1"
_space_group_IT_number       1

loop_
  _space_group_symop_operation_xyz
  'x, y, z'

loop_
  _atom_site_type_symbol
  _atom_site_label
  _atom_site_symmetry_multiplicity
  _atom_site_fract_x
  _atom_site_fract_y
  _atom_site_fract_z
  _atom_site_occupancy
  Ge  Ge1       1.0  0.29830230243911443  0.3800825235538065  0.31072750220719975  1.0000
  Ge  Ge2       1.0  0.101674113758108  0.8802139940289301  0.2935001769094756  1.0000
  Si  Si1       1.0  0.3367348707099891  0.22711761778249648  0.8832785228072737  1.0000
  Si  Si2       1.0  0.6326121845972207  0.22362275134064583  0.08942781202388327  1.0000
  Si  Si3       1.0  0.6376650061071556  0.73653298327622  0.09109880085112503  1.0000
  Si  Si4       1.0  0.341716677128849  0.7338514028254721  0.8794904178395978  1.0000
  Si  Si5       1.0  0.8405343258402387  0.72503061999643  0.8802518214940147  1.0000
  Si  Si6       1.0  0.1375593933312179  0.7256595285351652  0.08478423388523731  1.0000
  Si  Si7       1.0  0.12793472891408153  0.23900357099363895  0.08510699968903793  1.0000
  Si  Si8       1.0  0.831075496436623  0.23073386150834185  0.8748893922551958  1.0000
  Si  Si9       1.0  0.6953564571846732  0.37737973727441043  0.6518077266352464  1.0000
  Si  Si10      1.0  0.7003005921195424  0.5801082752646766  0.6572544643968637  1.0000
  Si  Si11      1.0  0.30577338491756123  0.5887783914987464  0.3144675827077189  1.0000
  Si  Si12      1.0  0.7987570111428279  0.8782566958299101  0.311970102398044  1.0000
  Si  Si13      1.0  0.1989211091699957  0.8789821929614624  0.6588182319324609  1.0000
  Si  Si14      1.0  0.19383874378012814  0.08367914708438326  0.6590357828373571  1.0000
  Si  Si15      1.0  0.8008003089223241  0.08315684180021257  0.3135606474181919  1.0000
  Si  Si16      1.0  0.39766642101685146  0.37842856637110095  0.6745300596281011  1.0000
  Si  Si17      1.0  0.6010086923926289  0.378451167216089  0.2920338924523327  1.0000
  Si  Si18      1.0  0.602349789920397  0.5827840134963228  0.29721754870877204  1.0000
  Si  Si19      1.0  0.40263848871436086  0.5824101917300715  0.6727694918239568  1.0000
  Si  Si20      1.0  0.8993251475053928  0.8766249427853358  0.6704817816351685  1.0000
  Si  Si21      1.0  0.09856082745737899  0.08791357527060524  0.29931217586576375  1.0000
  Si  Si22      1.0  0.8962333558438099  0.08066748482538673  0.6724316837766915  1.0000
  O   O1        1.0  0.47362347178176006  0.206800235471061  0.016420699018215867  1.0000
  O   O2        1.0  0.47936257205042626  0.7514110969504716  0.011931584518345778  1.0000
  O   O3        1.0  0.9797056244585326  0.7064216290708816  0.010513122399859402  1.0000
  O   O4        1.0  0.9692741134279429  0.24953050513575664  0.005476989479694153  1.0000
  O   O5        1.0  0.3122138299295381  0.1449179067251766  0.7622542195316638  1.0000
  O   O6        1.0  0.6803864248109991  0.14311398348711332  0.21175417699274598  1.0000
  O   O7        1.0  0.6778566518755124  0.8192060692006123  0.20944788489706814  1.0000
  O   O8        1.0  0.31833234281230505  0.8195608186346844  0.7652946089420744  1.0000
  O   O9        1.0  0.8174193681575344  0.6418316372749394  0.7613012307988077  1.0000
  O   O10       1.0  0.18650689259310663  0.6511547408564133  0.2180795896374098  1.0000
  O   O11       1.0  0.16231104202045923  0.3250892590243087  0.19673167116907686  1.0000
  O   O12       1.0  0.8097945484756786  0.312402442662574  0.7523366089054313  1.0000
  O   O13       1.0  0.3440757875292361  0.3206764428343101  0.7969997072524326  1.0000
  O   O14       1.0  0.6617947928288221  0.31891452260717373  0.1771736171181548  1.0000
  O   O15       1.0  0.6652994159624531  0.6428245968713678  0.1843241766348233  1.0000
  O   O16       1.0  0.34485961129453846  0.6421339309626566  0.7883267766539362  1.0000
  O   O17       1.0  0.8411726104330696  0.8170547668088487  0.7871159295386171  1.0000
  O   O18       1.0  0.16498005405761595  0.8239836727225945  0.16194964142213242  1.0000
  O   O19       1.0  0.16053457653030836  0.14896635179349085  0.18742785134379392  1.0000
  O   O20       1.0  0.8329720594582583  0.13715991734264033  0.7878780905965762  1.0000
  O   O21       1.0  0.21057890667397794  0.23639025110575185  0.9561442877574197  1.0000
  O   O22       1.0  0.707536927125433  0.2236189162412725  0.9528180903125499  1.0000
  O   O23       1.0  0.7187370103843463  0.7348238759525622  0.9603382157737116  1.0000
  O   O24       1.0  0.2159955519667692  0.7208173435417851  0.9521948270718589  1.0000
  O   O25       1.0  0.44272443407354983  0.35184254067424964  0.25978475273766716  1.0000
  O   O26       1.0  0.5549730402024433  0.35732873474770815  0.6939243224924682  1.0000
  O   O27       1.0  0.5618656605051507  0.6013927893625424  0.702805061715507  1.0000
  O   O28       1.0  0.44490110824350865  0.6085447686652016  0.26888290325583974  1.0000
  O   O29       1.0  0.9330271007514693  0.855050872873218  0.25731843017204353  1.0000
  O   O30       1.0  0.05867076397607028  0.8574162367569647  0.7004615954385678  1.0000
  O   O31       1.0  0.0555219255941847  0.1020414045969114  0.7073400811297016  1.0000
  O   O32       1.0  0.938168669567995  0.10509575788539681  0.2652739551241431  1.0000
  O   O33       1.0  0.3069210264271329  0.3521448747064622  0.5010000442285348  1.0000
  O   O34       1.0  0.6835933744081728  0.35721478170386195  0.4701779535784917  1.0000
  O   O35       1.0  0.6866746396713687  0.6019405848493518  0.47541807716961254  1.0000
  O   O36       1.0  0.3211369582796202  0.6086270655376724  0.4966440002491773  1.0000
  O   O37       1.0  0.8175444753212849  0.8525460657283238  0.49323489663802444  1.0000
  O   O38       1.0  0.19146370799032877  0.8517369729497662  0.4799072511647819  1.0000
  O   O39       1.0  0.17696395695593986  0.10975546933257398  0.4782625300154435  1.0000
  O   O40       1.0  0.8170450909692276  0.10659159946574898  0.49495056079080485  1.0000
  O   O41       1.0  0.253366416290908  0.4888619079695696  0.2684974249421937  1.0000
  O   O42       1.0  0.7457195444018133  0.47797843337645884  0.696318422068097  1.0000
  O   O43       1.0  0.7558945480500706  0.9809389187333651  0.27785520886901927  1.0000
  O   O44       1.0  0.24181475910894454  0.981666138675196  0.6925648645327035  1.0000
  O   O45       1.0  0.375346354412386  0.48082735094813833  0.7142129071072779  1.0000
  O   O46       1.0  0.6192104359665019  0.4810413657047774  0.2482175010678944  1.0000
  O   O47       1.0  0.8721040770981466  0.9781307664013961  0.710913857225034  1.0000
  O   O48       1.0  0.12990763227770696  0.9885092612393673  0.25089943542683313  1.0000
