data_image0
_chemical_formula_structural       Ge2Si22O48
_chemical_formula_sum              "Ge2 Si22 O48"
_cell_length_a       10.739423978116372
_cell_length_b       15.586813689402886
_cell_length_c       9.185469545310456
_cell_angle_alpha    89.92178804019854
_cell_angle_beta     105.56898957847636
_cell_angle_gamma    89.87157979803905

_space_group_name_H-M_alt    "P 1"
_space_group_IT_number       1

loop_
  _space_group_symop_operation_xyz
  'x, y, z'

loop_
  _atom_site_type_symbol
  _atom_site_label
  _atom_site_symmetry_multiplicity
  _atom_site_fract_x
  _atom_site_fract_y
  _atom_site_fract_z
  _atom_site_occupancy
  Ge  Ge1       1.0  0.3460473840165234  0.22493309112555265  0.8893580240374706  1.0000
  Ge  Ge2       1.0  0.14026327261833593  0.7298439384827009  0.09187650653159181  1.0000
  Si  Si1       1.0  0.64616973523724  0.22906982507276583  0.10031216224032703  1.0000
  Si  Si2       1.0  0.641593255773028  0.7363459074267349  0.09281143300845598  1.0000
  Si  Si3       1.0  0.35017900573589356  0.7409430527456156  0.883557644312284  1.0000
  Si  Si4       1.0  0.8402164272859115  0.724605082285028  0.880499751612574  1.0000
  Si  Si5       1.0  0.13640286336319726  0.2379559120426669  0.09925373590624378  1.0000
  Si  Si6       1.0  0.845429594849901  0.2394341590926638  0.8891979293668645  1.0000
  Si  Si7       1.0  0.2833027383829871  0.3798341878436956  0.3201801087464485  1.0000
  Si  Si8       1.0  0.6745173467617227  0.3790849791498336  0.662368644289518  1.0000
  Si  Si9       1.0  0.675107656276696  0.5837283627506167  0.6578811186048344  1.0000
  Si  Si10      1.0  0.28315170705986153  0.5840185611721583  0.32132504144777535  1.0000
  Si  Si11      1.0  0.7806867372674375  0.8813217647541822  0.3193343921995709  1.0000
  Si  Si12      1.0  0.17199687173381437  0.877004505791741  0.6605171525289346  1.0000
  Si  Si13      1.0  0.1729671409433412  0.08341979230950043  0.6626251196570063  1.0000
  Si  Si14      1.0  0.7794975664974377  0.08364278119191661  0.3257294125932373  1.0000
  Si  Si15      1.0  0.38099708433761625  0.3819133472812337  0.6803040309547128  1.0000
  Si  Si16      1.0  0.5766047999917371  0.3800750972406606  0.30165728729652963  1.0000
  Si  Si17      1.0  0.5758105674988636  0.5847286740042072  0.29858352564229884  1.0000
  Si  Si18      1.0  0.38234023987535326  0.5855089490933559  0.6801052207269515  1.0000
  Si  Si19      1.0  0.8805597183179836  0.8794112283927619  0.6816888215803759  1.0000
  Si  Si20      1.0  0.07543788000016059  0.8828381824328159  0.303454622478472  1.0000
  Si  Si21      1.0  0.07443289351865785  0.0865202305384426  0.3073187293551345  1.0000
  Si  Si22      1.0  0.8815361838466911  0.08375501813258675  0.6862749454500301  1.0000
  O   O1        1.0  0.5143687523750383  0.2061000294996881  0.9619626312879598  1.0000
  O   O2        1.0  0.5075876763492659  0.7595113528702253  0.9574064833526215  1.0000
  O   O3        1.0  0.9984885815170784  0.7050495191102719  0.947837390886596  1.0000
  O   O4        1.0  0.002673180901985368  0.2595140686340706  0.962827898065924  1.0000
  O   O5        1.0  0.3007713874977018  0.136118687489535  0.7655933682262946  1.0000
  O   O6        1.0  0.6651169339007554  0.14875215899329747  0.2257831998919531  1.0000
  O   O7        1.0  0.6664450675856787  0.8172212072081398  0.21743804548745502  1.0000
  O   O8        1.0  0.2971721316248131  0.820483867982173  0.7604569525093069  1.0000
  O   O9        1.0  0.7940301888751309  0.6442059038625394  0.7584019132760986  1.0000
  O   O10       1.0  0.15960505095203426  0.6429609454372568  0.22206147952251348  1.0000
  O   O11       1.0  0.1615908356427495  0.32021634268477  0.22088572198414919  1.0000
  O   O12       1.0  0.7936250335966839  0.31855718339364625  0.764570792320854  1.0000
  O   O13       1.0  0.31494247210389736  0.32594329331624505  0.7955356997012805  1.0000
  O   O14       1.0  0.6378623318607612  0.3228975517057234  0.18489280291880483  1.0000
  O   O15       1.0  0.6326355896636845  0.6430243668805335  0.17939456745479207  1.0000
  O   O16       1.0  0.32454539448350556  0.6454635642628549  0.7969582893963753  1.0000
  O   O17       1.0  0.8148925669968387  0.820177546793799  0.7928825085242214  1.0000
  O   O18       1.0  0.13537711737261382  0.8308584610723799  0.17950069708569677  1.0000
  O   O19       1.0  0.12741771355920972  0.14502296243690124  0.1859173097749603  1.0000
  O   O20       1.0  0.8226920635241443  0.14358935900111658  0.8027609514626074  1.0000
  O   O21       1.0  0.26654858877897475  0.2250694396171159  0.03502090476874745  1.0000
  O   O22       1.0  0.7718761836204929  0.23755952741279535  0.027186405323348605  1.0000
  O   O23       1.0  0.7658199359307762  0.7250246741574377  0.017584618808828986  1.0000
  O   O24       1.0  0.27923880472490886  0.7400395473400514  0.02391268005331489  1.0000
  O   O25       1.0  0.41809002120488664  0.3596206276073696  0.2668888651971978  1.0000
  O   O26       1.0  0.5395288332631683  0.36045393242592194  0.7162425258531322  1.0000
  O   O27       1.0  0.5407162877395422  0.6044644252226004  0.7112258929791122  1.0000
  O   O28       1.0  0.4175031106185891  0.6046231168171887  0.267959648785146  1.0000
  O   O29       1.0  0.9159129458227566  0.8666266535480618  0.26449392233482955  1.0000
  O   O30       1.0  0.039403860984303464  0.856661866112549  0.718641512281971  1.0000
  O   O31       1.0  0.04004184205653578  0.10445780440145998  0.7191597283371759  1.0000
  O   O32       1.0  0.9149599256924679  0.10077767155684104  0.2733105957433084  1.0000
  O   O33       1.0  0.30363352939966387  0.35559598632057  0.5026883516942662  1.0000
  O   O34       1.0  0.6541958584892958  0.35400026361131176  0.4800898119667131  1.0000
  O   O35       1.0  0.656482663966381  0.6095428738800799  0.47619774007307386  1.0000
  O   O36       1.0  0.30188226128120127  0.6101586336029573  0.5025111635019642  1.0000
  O   O37       1.0  0.8036159561843403  0.8564136588132871  0.5021033640588856  1.0000
  O   O38       1.0  0.14907241482232336  0.8493164032007309  0.4788640281805785  1.0000
  O   O39       1.0  0.15191732430743707  0.11572797175971018  0.4835791155646276  1.0000
  O   O40       1.0  0.800030489994176  0.10755345350188819  0.5083476903155457  1.0000
  O   O41       1.0  0.23681325184820262  0.48206880160290183  0.2869657158109717  1.0000
  O   O42       1.0  0.7211585387149274  0.48142951617239915  0.693171050002309  1.0000
  O   O43       1.0  0.7272694102706513  0.982698482158987  0.287922498428361  1.0000
  O   O44       1.0  0.2144211352120149  0.9800364404572931  0.6860139170406958  1.0000
  O   O45       1.0  0.3546767190612319  0.4838556755588784  0.7200777125833863  1.0000
  O   O46       1.0  0.6022301959279092  0.4822153631949133  0.2617463646283434  1.0000
  O   O47       1.0  0.8570949114526831  0.9812792268796312  0.7256278788289009  1.0000
  O   O48       1.0  0.1098234997644158  0.9850195256766646  0.27603952898437206  1.0000
