data_image0
_chemical_formula_structural       Ge2Si22O48
_chemical_formula_sum              "Ge2 Si22 O48"
_cell_length_a       10.670679086976648
_cell_length_b       15.61100457710271
_cell_length_c       9.212787059425276
_cell_angle_alpha    90.05566840879068
_cell_angle_beta     105.57776537234903
_cell_angle_gamma    89.90781591756141

_space_group_name_H-M_alt    "P 1"
_space_group_IT_number       1

loop_
  _space_group_symop_operation_xyz
  'x, y, z'

loop_
  _atom_site_type_symbol
  _atom_site_label
  _atom_site_symmetry_multiplicity
  _atom_site_fract_x
  _atom_site_fract_y
  _atom_site_fract_z
  _atom_site_occupancy
  Ge  Ge1       1.0  0.2972155924507099  0.37849857848256463  0.3146738809670938  1.0000
  Ge  Ge2       1.0  0.6009780615349303  0.5828201421457326  0.29462499805203585  1.0000
  Si  Si1       1.0  0.33589649882981004  0.22791277410447955  0.8827970416027869  1.0000
  Si  Si2       1.0  0.6319040039655905  0.2206269018279695  0.08806303833300903  1.0000
  Si  Si3       1.0  0.6374544189261674  0.7394110699227271  0.08546863881911645  1.0000
  Si  Si4       1.0  0.3404378670800968  0.736611604292808  0.8810565102564417  1.0000
  Si  Si5       1.0  0.8411609928286746  0.727790099177476  0.8793365704266296  1.0000
  Si  Si6       1.0  0.1371530734824015  0.7281195171162996  0.09127201925013319  1.0000
  Si  Si7       1.0  0.12845739796261607  0.23562452721421737  0.0871761085632822  1.0000
  Si  Si8       1.0  0.8317991595530225  0.23143117980501476  0.8758287910644854  1.0000
  Si  Si9       1.0  0.6941826669345311  0.3780860567499327  0.6558120234373234  1.0000
  Si  Si10      1.0  0.6998886422940557  0.5817136028933138  0.6612866090723534  1.0000
  Si  Si11      1.0  0.29849680471939766  0.5876792117481271  0.31565443140258004  1.0000
  Si  Si12      1.0  0.8054006840194999  0.8772600040893814  0.31185020102553473  1.0000
  Si  Si13      1.0  0.19850546277482334  0.8808393704643785  0.6558174611250313  1.0000
  Si  Si14      1.0  0.19416637377920343  0.08442070151211942  0.6556773753314838  1.0000
  Si  Si15      1.0  0.8015921590579226  0.0820990317262472  0.31100248295258115  1.0000
  Si  Si16      1.0  0.39755037794746084  0.3798091046750095  0.6793412489014906  1.0000
  Si  Si17      1.0  0.600247342814435  0.3746504017370812  0.29482313565989776  1.0000
  Si  Si18      1.0  0.4007149320832085  0.5840366870620813  0.6750219921009626  1.0000
  Si  Si19      1.0  0.90034938760231  0.8782787612183477  0.6689669670532067  1.0000
  Si  Si20      1.0  0.1017624007577575  0.8801409391026195  0.29689989518161386  1.0000
  Si  Si21      1.0  0.09796051417313023  0.08413583216610672  0.2966910194174087  1.0000
  Si  Si22      1.0  0.8958436276864038  0.0819089391603219  0.6688921416536544  1.0000
  O   O1        1.0  0.4729765316982505  0.2051779841971403  0.013710792513204537  1.0000
  O   O2        1.0  0.47921388277496  0.7568496136918783  0.010598028102570585  1.0000
  O   O3        1.0  0.9793604721942778  0.7117362165834756  0.01181073354667847  1.0000
  O   O4        1.0  0.9701012922633557  0.2484097329849056  0.007391836146169257  1.0000
  O   O5        1.0  0.3102899046758904  0.1480298877672647  0.7566505864761914  1.0000
  O   O6        1.0  0.6783678453360342  0.13816811994229763  0.20552070893954777  1.0000
  O   O7        1.0  0.6839589004849763  0.8186360619878164  0.20980682739441722  1.0000
  O   O8        1.0  0.315588534017924  0.8188556699165206  0.7597613765928366  1.0000
  O   O9        1.0  0.8188084658611224  0.6412351762931874  0.767643459952144  1.0000
  O   O10       1.0  0.17877921895097926  0.6492089653105316  0.2175399554840959  1.0000
  O   O11       1.0  0.16379179027486993  0.3191021033110027  0.20555196926638322  1.0000
  O   O12       1.0  0.8105320557975636  0.3148047292462673  0.7573831845044395  1.0000
  O   O13       1.0  0.34348773783754527  0.3229804858607859  0.8021202677681216  1.0000
  O   O14       1.0  0.6622177645217319  0.3133279060650604  0.18338287486326363  1.0000
  O   O15       1.0  0.6668575393802024  0.6428201368254309  0.16941162323545392  1.0000
  O   O16       1.0  0.3434980242081093  0.6436111300678308  0.7921447249569737  1.0000
  O   O17       1.0  0.8419455252195667  0.8183974637444792  0.7839184605606827  1.0000
  O   O18       1.0  0.16354866148332844  0.8232097915349524  0.17937115150533817  1.0000
  O   O19       1.0  0.15903620517925193  0.14249114019793716  0.18069809666081305  1.0000
  O   O20       1.0  0.8332650529094352  0.13917413607790063  0.7842934754550719  1.0000
  O   O21       1.0  0.21114356369003479  0.23590340623176337  0.9582435566403468  1.0000
  O   O22       1.0  0.7077626816543765  0.22316136435326575  0.9525269324404397  1.0000
  O   O23       1.0  0.7158131385903579  0.7406814896259267  0.9525478491617789  1.0000
  O   O24       1.0  0.21875413507329836  0.7267464034202474  0.9611968771154036  1.0000
  O   O25       1.0  0.44074135280362453  0.3517347764492948  0.26040031729748997  1.0000
  O   O26       1.0  0.5553696512481457  0.35894877303078343  0.7016976732491322  1.0000
  O   O27       1.0  0.5598346190329688  0.6029140453775298  0.7033641767719361  1.0000
  O   O28       1.0  0.4331774712809754  0.6097544015236305  0.26125786671658824  1.0000
  O   O29       1.0  0.9441005596976235  0.8548510151985451  0.2671355021884794  1.0000
  O   O30       1.0  0.05950109251135155  0.8588827518205823  0.6995954460915943  1.0000
  O   O31       1.0  0.05444977560474833  0.1039929069447258  0.7001508927902882  1.0000
  O   O32       1.0  0.9393671153770458  0.1069347752817288  0.2662968945415186  1.0000
  O   O33       1.0  0.30906491194326613  0.3516801655556144  0.5058920789162703  1.0000
  O   O34       1.0  0.6797398446879197  0.3552856381518218  0.47441440738425805  1.0000
  O   O35       1.0  0.6919574858372685  0.6079148598632095  0.48193881879354566  1.0000
  O   O36       1.0  0.31864398043990594  0.609165556009637  0.49838759556473583  1.0000
  O   O37       1.0  0.8184275341170545  0.8534833142741274  0.4923610637924611  1.0000
  O   O38       1.0  0.1860715011298721  0.8585998795460218  0.4744169965925542  1.0000
  O   O39       1.0  0.180544227755745  0.10662683829818038  0.47421234494749265  1.0000
  O   O40       1.0  0.8137553893378114  0.1058381467984137  0.491626280614801  1.0000
  O   O41       1.0  0.2484064723307697  0.4868282634929023  0.27343272300505356  1.0000
  O   O42       1.0  0.7436530645117945  0.47917070842486664  0.6958055074522719  1.0000
  O   O43       1.0  0.762004472767208  0.9793829207349766  0.27377583160707714  1.0000
  O   O44       1.0  0.24304340865331753  0.9829573983617814  0.6956725547765364  1.0000
  O   O45       1.0  0.37385867735983536  0.48254096883595304  0.7163692639780256  1.0000
  O   O46       1.0  0.6246716106101814  0.4750596455670564  0.24413243440217614  1.0000
  O   O47       1.0  0.8733747476431076  0.979787441907501  0.7104226870559056  1.0000
  O   O48       1.0  0.12024004645869692  0.9823369740286365  0.2529250047323945  1.0000
