data_image0
_chemical_formula_structural       Ge2Si22O48
_chemical_formula_sum              "Ge2 Si22 O48"
_cell_length_a       10.66684225197205
_cell_length_b       15.608763728529375
_cell_length_c       9.224912223699329
_cell_angle_alpha    90.02511614476477
_cell_angle_beta     105.81631841076019
_cell_angle_gamma    89.73575058780055

_space_group_name_H-M_alt    "P 1"
_space_group_IT_number       1

loop_
  _space_group_symop_operation_xyz
  'x, y, z'

loop_
  _atom_site_type_symbol
  _atom_site_label
  _atom_site_symmetry_multiplicity
  _atom_site_fract_x
  _atom_site_fract_y
  _atom_site_fract_z
  _atom_site_occupancy
  Ge  Ge1       1.0  0.3798556764925431  0.3774901290355005  0.6783275927629427  1.0000
  Ge  Ge2       1.0  0.08474093601013631  0.08526827622975046  0.31270952537586466  1.0000
  Si  Si1       1.0  0.3482517016435966  0.22216692796067725  0.8927648029103092  1.0000
  Si  Si2       1.0  0.6452423799800525  0.23031290065261567  0.09774357162395717  1.0000
  Si  Si3       1.0  0.6417331154265301  0.7365735075453351  0.0997299573022666  1.0000
  Si  Si4       1.0  0.34394459493457613  0.7381866614767844  0.8897226979921677  1.0000
  Si  Si5       1.0  0.8425714652895472  0.7249881427607  0.8874153923903602  1.0000
  Si  Si6       1.0  0.1397028240369912  0.7274489395650008  0.09740936694765549  1.0000
  Si  Si7       1.0  0.14471862377183353  0.23737456676378046  0.09519679152290832  1.0000
  Si  Si8       1.0  0.8466402578768438  0.23684563017727428  0.8870622358995136  1.0000
  Si  Si9       1.0  0.28318785808963337  0.38139128673716627  0.31300507220625146  1.0000
  Si  Si10      1.0  0.6833082275607885  0.3780612035840111  0.6629481966940862  1.0000
  Si  Si11      1.0  0.6786440793637637  0.5827535420835217  0.6657049298392795  1.0000
  Si  Si12      1.0  0.285682951804717  0.5854564500016739  0.32228392422814955  1.0000
  Si  Si13      1.0  0.7823287073016718  0.8821734135215523  0.32161434759830193  1.0000
  Si  Si14      1.0  0.1747039419668536  0.8767834506102958  0.6649708220071524  1.0000
  Si  Si15      1.0  0.1785713540605059  0.08250638136138523  0.6751858302543671  1.0000
  Si  Si16      1.0  0.7799403988640224  0.08504815252761838  0.32328524681580495  1.0000
  Si  Si17      1.0  0.5827948004458153  0.3811452294999698  0.30350134431253367  1.0000
  Si  Si18      1.0  0.582835131327585  0.5853232408886363  0.30718553816658123  1.0000
  Si  Si19      1.0  0.38079664202613245  0.584948355836966  0.681928698424716  1.0000
  Si  Si20      1.0  0.8787445383757121  0.8788110060603261  0.6815278900456516  1.0000
  Si  Si21      1.0  0.08131737108643443  0.8777268624526614  0.3080154188102894  1.0000
  Si  Si22      1.0  0.8797765537791117  0.08241624322268656  0.6843429770947288  1.0000
  O   O1        1.0  0.5086057302199664  0.210869978633603  0.9634614331182706  1.0000
  O   O2        1.0  0.5015706936307832  0.7550441724897113  0.9705154947271109  1.0000
  O   O3        1.0  0.0009156270419794697  0.7084189679008412  0.96680525731083  1.0000
  O   O4        1.0  0.0063255067924021914  0.2503040891370319  0.9607497812671012  1.0000
  O   O5        1.0  0.30267161892899364  0.1349764322654256  0.7869456790747336  1.0000
  O   O6        1.0  0.6639386085700387  0.14931531091310601  0.22175732924092698  1.0000
  O   O7        1.0  0.6655358776064233  0.8199892019577532  0.21817743825627883  1.0000
  O   O8        1.0  0.29786879783345455  0.8196787368202979  0.7696007653542594  1.0000
  O   O9        1.0  0.7980113349981789  0.6422389699377241  0.7701342711847315  1.0000
  O   O10       1.0  0.16500186246681675  0.6457446333424057  0.21953984230605333  1.0000
  O   O11       1.0  0.16167307356645647  0.3245348992225941  0.20472182678533227  1.0000
  O   O12       1.0  0.8043357198834603  0.31795933306731405  0.7646615080693983  1.0000
  O   O13       1.0  0.30983536066483175  0.31367394944941235  0.7942348068185973  1.0000
  O   O14       1.0  0.6421204014445363  0.3237872522238092  0.18539878021373538  1.0000
  O   O15       1.0  0.6428688440200344  0.644456485384231  0.19252453927034063  1.0000
  O   O16       1.0  0.3208344902257278  0.6448975075256371  0.7966108852586853  1.0000
  O   O17       1.0  0.8165016415047415  0.8182991724763551  0.7932985237425666  1.0000
  O   O18       1.0  0.13715786726934007  0.8196516997151876  0.1883458395614071  1.0000
  O   O19       1.0  0.15187564484808588  0.1453779934292446  0.18998908992197192  1.0000
  O   O20       1.0  0.8172409218452672  0.14218904506374377  0.7975585023199775  1.0000
  O   O21       1.0  0.27413974131436175  0.2284492461725799  0.028630679089799032  1.0000
  O   O22       1.0  0.7695102177215752  0.2379236223975227  0.021314797526326923  1.0000
  O   O23       1.0  0.7629276805656462  0.7279913644215261  0.018912173720983295  1.0000
  O   O24       1.0  0.2625002718298356  0.7356162870780315  0.019362750447402006  1.0000
  O   O25       1.0  0.42311248716665517  0.3618094227150431  0.2694926027979973  1.0000
  O   O26       1.0  0.5496672867548958  0.3543539456988449  0.7184227726201944  1.0000
  O   O27       1.0  0.5411546226904002  0.6018834427500199  0.715163649093656  1.0000
  O   O28       1.0  0.423268429857943  0.6058659812431233  0.27442907497681274  1.0000
  O   O29       1.0  0.9197377107506138  0.8663595698514335  0.2704995353730715  1.0000
  O   O30       1.0  0.038923429175442274  0.858306407229244  0.7180551116373214  1.0000
  O   O31       1.0  0.040444788081437706  0.10102642686755962  0.7235221393052308  1.0000
  O   O32       1.0  0.9137052716251496  0.10416928803436314  0.26571783276635397  1.0000
  O   O33       1.0  0.2928298149989799  0.3511622344084773  0.49022639331152895  1.0000
  O   O34       1.0  0.6628417541996728  0.3545531581785552  0.4807842318963812  1.0000
  O   O35       1.0  0.6621282166961512  0.6093378248363072  0.4855159020619959  1.0000
  O   O36       1.0  0.3018365141981777  0.6091091194772749  0.5035653324993781  1.0000
  O   O37       1.0  0.8013470274707689  0.8556788302324982  0.5022898233918383  1.0000
  O   O38       1.0  0.15503286905545544  0.8475881337070841  0.48520200588224777  1.0000
  O   O39       1.0  0.16560341623838465  0.11805647724300623  0.4995738333731698  1.0000
  O   O40       1.0  0.803315198080471  0.10842192304850953  0.5058258924815238  1.0000
  O   O41       1.0  0.23853521099265107  0.4840526854369937  0.284064055816332  1.0000
  O   O42       1.0  0.7261030267863539  0.4805431861134431  0.6982501768635746  1.0000
  O   O43       1.0  0.730029465049919  0.9836247706145986  0.2886190622256547  1.0000
  O   O44       1.0  0.22022526601776593  0.979053283372561  0.6927433062293875  1.0000
  O   O45       1.0  0.3494074032168799  0.4845671142794253  0.7265201830726602  1.0000
  O   O46       1.0  0.6094271168586175  0.48344605473138996  0.2670274388073526  1.0000
  O   O47       1.0  0.8512147198813693  0.9805823469842202  0.722081581903622  1.0000
  O   O48       1.0  0.12260234051525862  0.9778806716701905  0.2748838162921841  1.0000
