data_image0
_chemical_formula_structural       Ge2Si22O48
_chemical_formula_sum              "Ge2 Si22 O48"
_cell_length_a       10.770513889134472
_cell_length_b       15.58329342066539
_cell_length_c       9.210945523274287
_cell_angle_alpha    90.17907125267543
_cell_angle_beta     105.67228965666604
_cell_angle_gamma    89.72618670260592

_space_group_name_H-M_alt    "P 1"
_space_group_IT_number       1

loop_
  _space_group_symop_operation_xyz
  'x, y, z'

loop_
  _atom_site_type_symbol
  _atom_site_label
  _atom_site_symmetry_multiplicity
  _atom_site_fract_x
  _atom_site_fract_y
  _atom_site_fract_z
  _atom_site_occupancy
  Ge  Ge1       1.0  0.3274973554408441  0.22982073104018239  0.884012224448393  1.0000
  Ge  Ge2       1.0  0.08768612774200409  0.08510424841081632  0.2966574477610298  1.0000
  Si  Si1       1.0  0.6281494355114937  0.22540190175375938  0.09879540281787824  1.0000
  Si  Si2       1.0  0.6384693158665458  0.737620283802321  0.09247951976195234  1.0000
  Si  Si3       1.0  0.34286876660362564  0.7375578618259961  0.8801687758378597  1.0000
  Si  Si4       1.0  0.8410291040663764  0.7258585155555364  0.8787311730213753  1.0000
  Si  Si5       1.0  0.13679870311773507  0.7243077541704501  0.08858109540324885  1.0000
  Si  Si6       1.0  0.1191232517315109  0.24358583203824885  0.08936032064201518  1.0000
  Si  Si7       1.0  0.8265431857208221  0.23540529055254622  0.8865232563463643  1.0000
  Si  Si8       1.0  0.2958400297748981  0.37972055011248823  0.3116417741616759  1.0000
  Si  Si9       1.0  0.6852225079042413  0.37970034467302105  0.6585809951243393  1.0000
  Si  Si10      1.0  0.6870859400423476  0.5833723985578795  0.6553845223006962  1.0000
  Si  Si11      1.0  0.2965921757219875  0.5856889825300775  0.31382943354066783  1.0000
  Si  Si12      1.0  0.7934078079004092  0.8799099897855092  0.31709942259778523  1.0000
  Si  Si13      1.0  0.1839378006833451  0.8768417342161107  0.6550632184222002  1.0000
  Si  Si14      1.0  0.18639465089771762  0.08200966527967016  0.6611717726724006  1.0000
  Si  Si15      1.0  0.7896999379956623  0.08415246910079092  0.3206346589760605  1.0000
  Si  Si16      1.0  0.3910609228743294  0.38194674407322443  0.6693377140957711  1.0000
  Si  Si17      1.0  0.5887993589453312  0.3798735034697899  0.29719579793851  1.0000
  Si  Si18      1.0  0.5887585957715886  0.5842264206904545  0.2955282917981635  1.0000
  Si  Si19      1.0  0.39298690572658584  0.5863855893189183  0.6707579332612708  1.0000
  Si  Si20      1.0  0.8924894238616468  0.8793160483069348  0.6767832987024693  1.0000
  Si  Si21      1.0  0.08668771924865766  0.8770850798877958  0.296301874467066  1.0000
  Si  Si22      1.0  0.893256773370276  0.08366625928506291  0.6807299136377228  1.0000
  O   O1        1.0  0.4697444934408796  0.20941731813165135  0.029727454655237996  1.0000
  O   O2        1.0  0.48980438993545267  0.7593853050810285  0.988269764630691  1.0000
  O   O3        1.0  0.9890253960384188  0.7029744815622971  0.9829995416941736  1.0000
  O   O4        1.0  0.9608444024316054  0.2596622104798995  0.019837974154021592  1.0000
  O   O5        1.0  0.3106912805750773  0.13666816449582564  0.7680469368694767  1.0000
  O   O6        1.0  0.6697370477330902  0.14531901631092206  0.22298171309098652  1.0000
  O   O7        1.0  0.6755582002313576  0.8184133689587876  0.21645718340667713  1.0000
  O   O8        1.0  0.30552666285871843  0.8179568109742084  0.755943871691693  1.0000
  O   O9        1.0  0.8049402774562597  0.6453046039554975  0.7543460593131351  1.0000
  O   O10       1.0  0.17422782435328624  0.6428323736653593  0.2102827182476592  1.0000
  O   O11       1.0  0.17125612537619567  0.32347562879325403  0.2114662466734566  1.0000
  O   O12       1.0  0.7997418341418461  0.3160545060939772  0.7616888225636417  1.0000
  O   O13       1.0  0.3273521503204805  0.3278711154516969  0.7863380351023437  1.0000
  O   O14       1.0  0.6549659085059034  0.3210674674499702  0.1858587121460307  1.0000
  O   O15       1.0  0.6491969302169261  0.6429889228323583  0.18071318516543394  1.0000
  O   O16       1.0  0.33533439261232334  0.6433784979942052  0.790797183792375  1.0000
  O   O17       1.0  0.8318628810247757  0.8206253837356825  0.7915018329798649  1.0000
  O   O18       1.0  0.1448814163602296  0.8177748285811153  0.1797803622674485  1.0000
  O   O19       1.0  0.15168052494460682  0.14686764191859278  0.17275287576076  1.0000
  O   O20       1.0  0.836206016214459  0.14235927897317738  0.7992139086390146  1.0000
  O   O21       1.0  0.18765329915871212  0.245329783669887  0.9477734032158591  1.0000
  O   O22       1.0  0.7046112298754587  0.22333590530156383  0.9642810944543736  1.0000
  O   O23       1.0  0.7392992880914613  0.7316935912578897  0.9850418197677303  1.0000
  O   O24       1.0  0.23888866813973503  0.731428070857749  0.9832679470759388  1.0000
  O   O25       1.0  0.43035854814897545  0.35764709264542444  0.2592438521017401  1.0000
  O   O26       1.0  0.549207411996226  0.36151310058435754  0.7084390252655479  1.0000
  O   O27       1.0  0.5514235402926616  0.6046509193018959  0.7050055711139713  1.0000
  O   O28       1.0  0.4313803525547841  0.60708219415623  0.2628586178200625  1.0000
  O   O29       1.0  0.9272069502371083  0.8629346914451632  0.2609798422228229  1.0000
  O   O30       1.0  0.050843047163730073  0.8588046859570955  0.7114850142133964  1.0000
  O   O31       1.0  0.05180648795699602  0.10137699815129554  0.714012348757394  1.0000
  O   O32       1.0  0.9187900208554649  0.10528580436562496  0.2570702452266057  1.0000
  O   O33       1.0  0.3153645008034628  0.35334869393754104  0.4925635628374431  1.0000
  O   O34       1.0  0.6662256486418111  0.35651159146262057  0.4762136948916322  1.0000
  O   O35       1.0  0.6696381641793288  0.60667125973441  0.4736204192248238  1.0000
  O   O36       1.0  0.31417300513391117  0.6137272059941045  0.49406153631674  1.0000
  O   O37       1.0  0.8155425893291075  0.8537140440808471  0.49856041767943066  1.0000
  O   O38       1.0  0.16169375100967134  0.8494116385650466  0.4738654505521546  1.0000
  O   O39       1.0  0.1711232077805371  0.11550904868226161  0.48402293425331755  1.0000
  O   O40       1.0  0.8151952827590225  0.1097496068396606  0.5030101670715177  1.0000
  O   O41       1.0  0.25407475480996294  0.4829420178935995  0.2821158985410367  1.0000
  O   O42       1.0  0.7341959270972229  0.4813776390797514  0.6941949569624594  1.0000
  O   O43       1.0  0.7435369217038119  0.9819197498366521  0.287749437608332  1.0000
  O   O44       1.0  0.23059309780572979  0.979054519447052  0.6833227636654966  1.0000
  O   O45       1.0  0.3630902420641231  0.48439638646890504  0.7042177999910653  1.0000
  O   O46       1.0  0.6118310268334393  0.4817486452932248  0.25438739432551677  1.0000
  O   O47       1.0  0.8651608834162308  0.981369507393104  0.716479120329903  1.0000
  O   O48       1.0  0.12275924507780646  0.9773837939018336  0.25618214010302987  1.0000
