data_image0
_chemical_formula_structural       Ge2Si22O48
_chemical_formula_sum              "Ge2 Si22 O48"
_cell_length_a       10.666199845460564
_cell_length_b       15.616811319047875
_cell_length_c       9.211250704455853
_cell_angle_alpha    89.94848107770035
_cell_angle_beta     105.64345516582775
_cell_angle_gamma    90.16119829974959

_space_group_name_H-M_alt    "P 1"
_space_group_IT_number       1

loop_
  _space_group_symop_operation_xyz
  'x, y, z'

loop_
  _atom_site_type_symbol
  _atom_site_label
  _atom_site_symmetry_multiplicity
  _atom_site_fract_x
  _atom_site_fract_y
  _atom_site_fract_z
  _atom_site_occupancy
  Ge  Ge1       1.0  0.2835403287430937  0.3801751766322799  0.3209996424621998  1.0000
  Ge  Ge2       1.0  0.8829029241527346  0.0834616668284765  0.6822050117481848  1.0000
  Si  Si1       1.0  0.3496346328533498  0.22630770179017926  0.8892603065126196  1.0000
  Si  Si2       1.0  0.6469262659991922  0.22869877792149346  0.09872203102393924  1.0000
  Si  Si3       1.0  0.6464807699139233  0.7340032713100239  0.0983422334945633  1.0000
  Si  Si4       1.0  0.35007897349511574  0.7398986018369004  0.8875526827387705  1.0000
  Si  Si5       1.0  0.8506745673403174  0.7225082875296397  0.8893358175746432  1.0000
  Si  Si6       1.0  0.14727017933740127  0.7306069231868858  0.09861136781481034  1.0000
  Si  Si7       1.0  0.1425468425992495  0.23244107385386345  0.09253805816535901  1.0000
  Si  Si8       1.0  0.8463050487325322  0.2392061425989741  0.8884771967615627  1.0000
  Si  Si9       1.0  0.6797530847141359  0.3791800217706648  0.6663728111170835  1.0000
  Si  Si10      1.0  0.6828765602109785  0.5840127988764011  0.6654065396854386  1.0000
  Si  Si11      1.0  0.28849100776963876  0.5865217071601317  0.3237817928298394  1.0000
  Si  Si12      1.0  0.78989047372623  0.8782716034364985  0.32166502171914674  1.0000
  Si  Si13      1.0  0.1844188630554364  0.8803081772012965  0.6639864222383388  1.0000
  Si  Si14      1.0  0.18586717587050886  0.08617060731366524  0.6638624329282878  1.0000
  Si  Si15      1.0  0.7853872135703215  0.08179696790660371  0.3156143892569626  1.0000
  Si  Si16      1.0  0.38415694326825184  0.38107828953732703  0.6884119144238087  1.0000
  Si  Si17      1.0  0.5878996942372045  0.37896694306314044  0.3076831335753427  1.0000
  Si  Si18      1.0  0.5868305881649926  0.5831947049026448  0.30737116621674215  1.0000
  Si  Si19      1.0  0.3872052020762837  0.5850186855916462  0.6844198424270668  1.0000
  Si  Si20      1.0  0.8871744079117697  0.8763140131805109  0.6820538994475805  1.0000
  Si  Si21      1.0  0.08734462856484883  0.8797827460704459  0.3064226959527326  1.0000
  Si  Si22      1.0  0.0850667954169864  0.08405373662430639  0.305898419715275  1.0000
  O   O1        1.0  0.5084229700671461  0.21215428073650985  0.9664319657504292  1.0000
  O   O2        1.0  0.5080925924952703  0.7554788802572792  0.9687493759127898  1.0000
  O   O3        1.0  0.008454774864406206  0.7072030851663126  0.971026197180562  1.0000
  O   O4        1.0  0.006819169996572879  0.25051278815470185  0.9567286295346342  1.0000
  O   O5        1.0  0.3071209691470009  0.14598634052463255  0.7653614963423654  1.0000
  O   O6        1.0  0.6672424626170572  0.14188018918867643  0.20943569702609552  1.0000
  O   O7        1.0  0.6722610624161841  0.8153729714239502  0.22113093598234793  1.0000
  O   O8        1.0  0.3057799643704968  0.8220809288126069  0.7684380323587398  1.0000
  O   O9        1.0  0.8064521993206354  0.640410399024734  0.7702395695909392  1.0000
  O   O10       1.0  0.17389743693819268  0.6519198288748326  0.2264405106602699  1.0000
  O   O11       1.0  0.15601654007142343  0.3154206274909812  0.212169571249497  1.0000
  O   O12       1.0  0.8015322063997863  0.3210611234792984  0.7693676125549828  1.0000
  O   O13       1.0  0.323736940919551  0.3226028179809377  0.8052179859186761  1.0000
  O   O14       1.0  0.6497150836901908  0.3196024286426782  0.19493110565597355  1.0000
  O   O15       1.0  0.6434710527691955  0.6409712694127964  0.18736809876764077  1.0000
  O   O16       1.0  0.3254062670531273  0.6457358525761075  0.7965822392219223  1.0000
  O   O17       1.0  0.8261058938364254  0.8150770523542781  0.7942272265549414  1.0000
  O   O18       1.0  0.14485681079460994  0.824573895207003  0.18453325591777728  1.0000
  O   O19       1.0  0.14152025207549668  0.14024613937030556  0.18411524537416946  1.0000
  O   O20       1.0  0.8106179824637544  0.1440151464331248  0.8008079272010123  1.0000
  O   O21       1.0  0.2693683621675561  0.22421865595033139  0.02068655719839935  1.0000
  O   O22       1.0  0.7724563072668921  0.24075790833789584  0.025417055370200344  1.0000
  O   O23       1.0  0.7685672342832673  0.7252978698386836  0.01879340400341412  1.0000
  O   O24       1.0  0.26861452384785955  0.737913587378314  0.01771815826010803  1.0000
  O   O25       1.0  0.428080676410993  0.35691292020316545  0.266875813919823  1.0000
  O   O26       1.0  0.5424350214372875  0.35850457575235206  0.7154678154856428  1.0000
  O   O27       1.0  0.5463483406112478  0.606639919751241  0.7148366938320403  1.0000
  O   O28       1.0  0.4274760509188909  0.6024322466875566  0.27621744448997687  1.0000
  O   O29       1.0  0.9290290629413732  0.8571414979200386  0.27759476456132653  1.0000
  O   O30       1.0  0.04647519964555007  0.8569423459509564  0.7102398539999359  1.0000
  O   O31       1.0  0.05085942646642689  0.1108224544043546  0.7166273245134995  1.0000
  O   O32       1.0  0.9262837803576439  0.10426478803291715  0.27662004320467026  1.0000
  O   O33       1.0  0.29707768771793597  0.35509533780170577  0.5133250063177727  1.0000
  O   O34       1.0  0.6637928529371934  0.35337288496329083  0.4859909316002823  1.0000
  O   O35       1.0  0.6673656109221184  0.609485675306746  0.48446873958946246  1.0000
  O   O36       1.0  0.3058468677585988  0.6070734011877071  0.5062961390240597  1.0000
  O   O37       1.0  0.8039063884897072  0.8569535315711988  0.5034996973667036  1.0000
  O   O38       1.0  0.17076054257760898  0.8552317004369547  0.483288746297826  1.0000
  O   O39       1.0  0.1682624830158343  0.11010147822584328  0.48207238055964885  1.0000
  O   O40       1.0  0.7911242177391217  0.10681821225752092  0.4944451128937296  1.0000
  O   O41       1.0  0.22976450671520354  0.4873809624864891  0.27792473068472184  1.0000
  O   O42       1.0  0.7246248154224694  0.4814307227588367  0.6993977745878913  1.0000
  O   O43       1.0  0.7422777742101587  0.9793595707487077  0.27841528547367206  1.0000
  O   O44       1.0  0.226206308543938  0.9832223477121872  0.6988891330190665  1.0000
  O   O45       1.0  0.36318206340031484  0.4835148967731386  0.7292498542300656  1.0000
  O   O46       1.0  0.6143907682788124  0.48117003886862003  0.2700046606756595  1.0000
  O   O47       1.0  0.8610903178434365  0.9759451513833626  0.7349641711517659  1.0000
  O   O48       1.0  0.11071127228399393  0.9821143979963806  0.26766885600142387  1.0000
