data_image0
_chemical_formula_structural       Ge2Si22O48
_chemical_formula_sum              "Ge2 Si22 O48"
_cell_length_a       10.706651169735297
_cell_length_b       15.600621907175205
_cell_length_c       9.198331690391482
_cell_angle_alpha    90.06878465066188
_cell_angle_beta     105.5169181297159
_cell_angle_gamma    89.77893222460396

_space_group_name_H-M_alt    "P 1"
_space_group_IT_number       1

loop_
  _space_group_symop_operation_xyz
  'x, y, z'

loop_
  _atom_site_type_symbol
  _atom_site_label
  _atom_site_symmetry_multiplicity
  _atom_site_fract_x
  _atom_site_fract_y
  _atom_site_fract_z
  _atom_site_occupancy
  Ge  Ge1       1.0  0.3467043204232477  0.22554790725790708  0.8883017439881947  1.0000
  Ge  Ge2       1.0  0.6814387626179772  0.5838386112168219  0.6620624138754694  1.0000
  Si  Si1       1.0  0.6468164823671201  0.22616521409181178  0.10074904469524584  1.0000
  Si  Si2       1.0  0.6414714026960993  0.7347041306734252  0.09384310122852968  1.0000
  Si  Si3       1.0  0.3463226600342223  0.7396530158197057  0.8877481683679156  1.0000
  Si  Si4       1.0  0.8493640390047471  0.7263070955896872  0.8895413952031709  1.0000
  Si  Si5       1.0  0.1452713260256729  0.7297600612249938  0.09904617062306509  1.0000
  Si  Si6       1.0  0.13826975485159068  0.23677495499346693  0.10058273989725117  1.0000
  Si  Si7       1.0  0.8468566040969653  0.23569445801439384  0.8907187875248243  1.0000
  Si  Si8       1.0  0.2826371938679403  0.3808446135980629  0.31992621046652303  1.0000
  Si  Si9       1.0  0.6757180360439852  0.3747746939184492  0.6631982844282691  1.0000
  Si  Si10      1.0  0.28539836641750377  0.584415538228915  0.3211836047956174  1.0000
  Si  Si11      1.0  0.7839260067423525  0.8778789201018775  0.3215919497035969  1.0000
  Si  Si12      1.0  0.17648036667375241  0.8773632933904255  0.6627316516876223  1.0000
  Si  Si13      1.0  0.17541436812490255  0.0825800915491718  0.6614946992262954  1.0000
  Si  Si14      1.0  0.7811900203673553  0.08127561109125007  0.32549185496671457  1.0000
  Si  Si15      1.0  0.38086149580785006  0.3823008255679068  0.6800924200684757  1.0000
  Si  Si16      1.0  0.5782569386508345  0.3780916436885574  0.30283881032505744  1.0000
  Si  Si17      1.0  0.5808785238310147  0.5826205695973836  0.29733932159125054  1.0000
  Si  Si18      1.0  0.3805110432038945  0.5867022196060128  0.6811347001793174  1.0000
  Si  Si19      1.0  0.8828391961340094  0.8778252264173922  0.68134219667812  1.0000
  Si  Si20      1.0  0.08028282883391398  0.8797817971207298  0.3044107535410434  1.0000
  Si  Si21      1.0  0.07677376880921208  0.08323158746645543  0.3046023707543987  1.0000
  Si  Si22      1.0  0.8824800230470555  0.08230670735091633  0.6841958841218743  1.0000
  O   O1        1.0  0.5150996614586655  0.20515369639850015  0.9609021766273422  1.0000
  O   O2        1.0  0.5037258115477499  0.7575327981383864  0.9645606715204023  1.0000
  O   O3        1.0  0.006615967470624212  0.7113926117844112  0.9699162673161739  1.0000
  O   O4        1.0  0.0039729872283509726  0.2573336161159238  0.9642172712355459  1.0000
  O   O5        1.0  0.30122135124411553  0.13851246869037276  0.7607381412895503  1.0000
  O   O6        1.0  0.6652074246178891  0.1447997706820073  0.22354767108021886  1.0000
  O   O7        1.0  0.6680092847738883  0.8144021757633582  0.2208333385958492  1.0000
  O   O8        1.0  0.2994063133293933  0.8200224324166016  0.7653004350419034  1.0000
  O   O9        1.0  0.8146282986395831  0.6432217423275082  0.7701111265104569  1.0000
  O   O10       1.0  0.16852306766053096  0.6469970294603343  0.21912300598171555  1.0000
  O   O11       1.0  0.16245785095967186  0.3195412285127366  0.2213626216214296  1.0000
  O   O12       1.0  0.7932584269917741  0.31242585271660217  0.7628624796916345  1.0000
  O   O13       1.0  0.3151253693159453  0.32682599070164026  0.7961064783300781  1.0000
  O   O14       1.0  0.6384901774429234  0.3195225433542216  0.18671335989579624  1.0000
  O   O15       1.0  0.6347470513520068  0.639320614384588  0.17420670400634614  1.0000
  O   O16       1.0  0.3192135811639911  0.6450983443224423  0.7973428470551083  1.0000
  O   O17       1.0  0.8210498333029588  0.8200715179751901  0.7974263337176469  1.0000
  O   O18       1.0  0.14238144473247974  0.8226773381224312  0.1882737009683868  1.0000
  O   O19       1.0  0.13066643417562615  0.1436111619224017  0.1865163341303984  1.0000
  O   O20       1.0  0.8250358488839336  0.13972421767511273  0.8050483409948862  1.0000
  O   O21       1.0  0.2683879039542166  0.2246948318099223  0.03510515082638886  1.0000
  O   O22       1.0  0.7736023865228732  0.23468895168671236  0.028920354320455855  1.0000
  O   O23       1.0  0.7650114477411404  0.7266839062184471  0.016825827745010125  1.0000
  O   O24       1.0  0.2680600562693795  0.7385030409345361  0.021077429434053357  1.0000
  O   O25       1.0  0.41908964971329077  0.3594138154498026  0.26995269345421974  1.0000
  O   O26       1.0  0.5384779728674094  0.35737229737577153  0.713229412169665  1.0000
  O   O27       1.0  0.5387564876164337  0.6116784759474194  0.716597685958603  1.0000
  O   O28       1.0  0.4233528239800196  0.6033063597025413  0.2740773751021154  1.0000
  O   O29       1.0  0.9220139300819364  0.8588328293450228  0.2738419760159338  1.0000
  O   O30       1.0  0.04033571047196851  0.8532065023821758  0.7106909824128542  1.0000
  O   O31       1.0  0.03938153147961986  0.1069844183138898  0.7099840503928697  1.0000
  O   O32       1.0  0.9186103126464539  0.10206089633991679  0.27868461163937763  1.0000
  O   O33       1.0  0.3002322403102009  0.35877379043702556  0.5024732338963235  1.0000
  O   O34       1.0  0.6568263791869653  0.35235567065287404  0.4805688734102727  1.0000
  O   O35       1.0  0.6690590038961155  0.6111155949234224  0.47062703062955463  1.0000
  O   O36       1.0  0.3004310916448279  0.6086972215283388  0.5025427538940278  1.0000
  O   O37       1.0  0.7998505825600182  0.855592361141139  0.5038090938300394  1.0000
  O   O38       1.0  0.16179817791497636  0.854272028100895  0.4811466177186928  1.0000
  O   O39       1.0  0.16071527073588956  0.10734205705929191  0.48074657034328927  1.0000
  O   O40       1.0  0.7959014323240579  0.10398806050965884  0.5074883629670495  1.0000
  O   O41       1.0  0.2367321203430195  0.4830422270093909  0.2828701356725153  1.0000
  O   O42       1.0  0.7289906027947493  0.47522027709365383  0.703802729224996  1.0000
  O   O43       1.0  0.7344915009256768  0.9796544859162503  0.28467938466880516  1.0000
  O   O44       1.0  0.21662830341576128  0.9800344018702998  0.6989200995225462  1.0000
  O   O45       1.0  0.35983211999072173  0.48448733795470317  0.7230581060224891  1.0000
  O   O46       1.0  0.6054979821229385  0.4796583918202811  0.26215271249409355  1.0000
  O   O47       1.0  0.8636313210218283  0.9798940785726626  0.7269169289308506  1.0000
  O   O48       1.0  0.10382165327415249  0.9817223161163539  0.26260919589311205  1.0000
