data_image0
_chemical_formula_structural       Ge2Si22O48
_chemical_formula_sum              "Ge2 Si22 O48"
_cell_length_a       10.705533872497224
_cell_length_b       15.604206191722032
_cell_length_c       9.190822524908988
_cell_angle_alpha    90.16739718205498
_cell_angle_beta     105.57156567020299
_cell_angle_gamma    89.76781127049739

_space_group_name_H-M_alt    "P 1"
_space_group_IT_number       1

loop_
  _space_group_symop_operation_xyz
  'x, y, z'

loop_
  _atom_site_type_symbol
  _atom_site_label
  _atom_site_symmetry_multiplicity
  _atom_site_fract_x
  _atom_site_fract_y
  _atom_site_fract_z
  _atom_site_occupancy
  Ge  Ge1       1.0  0.34803020611852487  0.22662544117191827  0.8916796434711888  1.0000
  Ge  Ge2       1.0  0.2817238807372002  0.3796848713537402  0.32059078051006873  1.0000
  Si  Si1       1.0  0.6497933250190215  0.22790444630390727  0.10133443270421527  1.0000
  Si  Si2       1.0  0.6398852927758643  0.735086114676963  0.09787968491076818  1.0000
  Si  Si3       1.0  0.3442086033147666  0.741296882738676  0.8873500329330019  1.0000
  Si  Si4       1.0  0.8431607792358253  0.7253654303389844  0.886712121101477  1.0000
  Si  Si5       1.0  0.13869036897858633  0.7299755366148251  0.09481116406022626  1.0000
  Si  Si6       1.0  0.1359604824725437  0.23332203683787947  0.09647143641459832  1.0000
  Si  Si7       1.0  0.8457130890753827  0.2381620044642281  0.8870205499332171  1.0000
  Si  Si8       1.0  0.676249991100634  0.3804556777671018  0.666289476323445  1.0000
  Si  Si9       1.0  0.678338820213887  0.585106140198815  0.6626820012904161  1.0000
  Si  Si10      1.0  0.28436558827518715  0.5874487645527935  0.32058482375552017  1.0000
  Si  Si11      1.0  0.7821552006126026  0.879278323968887  0.3234584543439061  1.0000
  Si  Si12      1.0  0.17615491445661438  0.8789827455145455  0.6622841052689936  1.0000
  Si  Si13      1.0  0.17429173196281064  0.08486741111182566  0.6609919990631327  1.0000
  Si  Si14      1.0  0.7801742792689159  0.08125175374175525  0.3231988555856919  1.0000
  Si  Si15      1.0  0.38218007207051014  0.38393397622209874  0.687682681237768  1.0000
  Si  Si16      1.0  0.5834515125617522  0.37898588498503394  0.3047843897212016  1.0000
  Si  Si17      1.0  0.5806108775263525  0.5833998569729975  0.303173122279066  1.0000
  Si  Si18      1.0  0.3835335807411955  0.5880394566864159  0.6805625803099662  1.0000
  Si  Si19      1.0  0.8826510134352494  0.8796913020267021  0.6842245684714777  1.0000
  Si  Si20      1.0  0.07837629615013485  0.8792739787718123  0.3050577897064971  1.0000
  Si  Si21      1.0  0.07578515217128569  0.08263395150538178  0.3042719858645235  1.0000
  Si  Si22      1.0  0.8813806980081146  0.08340020362482707  0.6838036576078331  1.0000
  O   O1        1.0  0.5170377341935065  0.2074481279849586  0.9621041508264986  1.0000
  O   O2        1.0  0.5005609901011177  0.758065526198331  0.9715392631317575  1.0000
  O   O3        1.0  0.9998655362696757  0.7070283204199388  0.9680327608674194  1.0000
  O   O4        1.0  0.005227193007155601  0.25372904597862767  0.9551241755875906  1.0000
  O   O5        1.0  0.3000088415542861  0.14155773621019926  0.7596592632188705  1.0000
  O   O6        1.0  0.6656290424757948  0.146076069962367  0.22266343548124792  1.0000
  O   O7        1.0  0.6666565475781763  0.8151033516370775  0.224140831640577  1.0000
  O   O8        1.0  0.2999279079653863  0.8228139187774535  0.7667076019478364  1.0000
  O   O9        1.0  0.7988693853498017  0.6448630234880225  0.7634707504984297  1.0000
  O   O10       1.0  0.16704224645782784  0.6501520274105014  0.2205515586099284  1.0000
  O   O11       1.0  0.15056983618809794  0.31617758707720084  0.21764430719089206  1.0000
  O   O12       1.0  0.7953105889739687  0.32005595595239905  0.7690440562431486  1.0000
  O   O13       1.0  0.3194534273702763  0.33037506272350675  0.8084592376239039  1.0000
  O   O14       1.0  0.6475928077448411  0.32103890252614775  0.1910691386750426  1.0000
  O   O15       1.0  0.6379420894262063  0.6409853654101944  0.1838729837501656  1.0000
  O   O16       1.0  0.32221109821645305  0.647279752568031  0.795651423654317  1.0000
  O   O17       1.0  0.8212508932562226  0.8204699906844274  0.7986667328911575  1.0000
  O   O18       1.0  0.1345749082623434  0.823491316148054  0.18216851827345196  1.0000
  O   O19       1.0  0.12813590588054172  0.1400113339123826  0.18133304513016274  1.0000
  O   O20       1.0  0.8180312160663211  0.14387017700540256  0.7958825312510948  1.0000
  O   O21       1.0  0.27056529050734157  0.2227748603115591  0.0391758020326179  1.0000
  O   O22       1.0  0.7760724620446606  0.2354037881919065  0.02839088887332401  1.0000
  O   O23       1.0  0.7599287666428494  0.7270129713203437  0.01526531603869418  1.0000
  O   O24       1.0  0.2596971752174872  0.7387286272164981  0.014391221519120628  1.0000
  O   O25       1.0  0.4237196226601206  0.3571579511432254  0.2606863534718242  1.0000
  O   O26       1.0  0.540962958030621  0.36277324135980593  0.7203932286568397  1.0000
  O   O27       1.0  0.5429339796984282  0.606704105850745  0.7149082420240962  1.0000
  O   O28       1.0  0.4212878839816289  0.6022547827133944  0.2690592281935704  1.0000
  O   O29       1.0  0.9191123688687479  0.8617693767470846  0.2727815353237928  1.0000
  O   O30       1.0  0.041240834141860166  0.8576720480330726  0.7152418002592268  1.0000
  O   O31       1.0  0.039797642343559765  0.1059298252746646  0.7154675738934996  1.0000
  O   O32       1.0  0.9162483960078776  0.09834095448148028  0.2714831298009775  1.0000
  O   O33       1.0  0.30046652627763815  0.3527578031758468  0.5135573476617762  1.0000
  O   O34       1.0  0.6560760099316588  0.3537808653416795  0.4846680122056133  1.0000
  O   O35       1.0  0.6593714110780878  0.6100286248773443  0.48071985635588454  1.0000
  O   O36       1.0  0.304973492905203  0.6128459215498975  0.5025185098279012  1.0000
  O   O37       1.0  0.8013019729038958  0.8566499963873727  0.5061272739363405  1.0000
  O   O38       1.0  0.15772504663576284  0.8507239001280494  0.4814858566772092  1.0000
  O   O39       1.0  0.15432116878468433  0.11223639725410824  0.48004052891668536  1.0000
  O   O40       1.0  0.7994678254779919  0.10498374794807544  0.50547840143184  1.0000
  O   O41       1.0  0.2276758863092793  0.4874445879879544  0.2828058982279275  1.0000
  O   O42       1.0  0.7233256644380917  0.482630174691104  0.6968998181500383  1.0000
  O   O43       1.0  0.729144922022736  0.9801850490066137  0.28573121712056193  1.0000
  O   O44       1.0  0.217739068052755  0.9820347243628108  0.6907014473688459  1.0000
  O   O45       1.0  0.35532335988799707  0.4867064235628242  0.720462554740559  1.0000
  O   O46       1.0  0.6097953954214623  0.4811402853562723  0.2675415477083939  1.0000
  O   O47       1.0  0.8596053324873042  0.9816387092536862  0.7283108918504352  1.0000
  O   O48       1.0  0.10924430256968605  0.9810119952535606  0.27080335490262186  1.0000
