data_image0
_chemical_formula_structural       Ge2Si22O48
_chemical_formula_sum              "Ge2 Si22 O48"
_cell_length_a       10.653605973980294
_cell_length_b       15.60763659609303
_cell_length_c       9.226111019058555
_cell_angle_alpha    90.00035358863502
_cell_angle_beta     105.76483975600354
_cell_angle_gamma    89.99736929103943

_space_group_name_H-M_alt    "P 1"
_space_group_IT_number       1

loop_
  _space_group_symop_operation_xyz
  'x, y, z'

loop_
  _atom_site_type_symbol
  _atom_site_label
  _atom_site_symmetry_multiplicity
  _atom_site_fract_x
  _atom_site_fract_y
  _atom_site_fract_z
  _atom_site_occupancy
  Ge  Ge1       1.0  0.3819993807046201  0.37665856947740134  0.6813505131772549  1.0000
  Ge  Ge2       1.0  0.38193313102177995  0.5878661358398557  0.6813368836703467  1.0000
  Si  Si1       1.0  0.3487269648784209  0.2208038700314897  0.8930095577393543  1.0000
  Si  Si2       1.0  0.6468999571715767  0.229131388271367  0.09708411811552248  1.0000
  Si  Si3       1.0  0.6467718924242152  0.7354983564735232  0.09712833776869424  1.0000
  Si  Si4       1.0  0.3486453836468407  0.7437262853428832  0.8930269601551762  1.0000
  Si  Si5       1.0  0.8481470397341215  0.7266685507143653  0.8853789979965897  1.0000
  Si  Si6       1.0  0.14504665508318546  0.7311396592693352  0.0974513644025675  1.0000
  Si  Si7       1.0  0.1451417415497776  0.23339856850084034  0.09740527561869841  1.0000
  Si  Si8       1.0  0.8482711855439483  0.23795046257181185  0.8853266089224993  1.0000
  Si  Si9       1.0  0.2859842522712341  0.3799276353770977  0.31475097723587564  1.0000
  Si  Si10      1.0  0.6862743680069265  0.3794701765685117  0.6632276395272736  1.0000
  Si  Si11      1.0  0.6862311598721855  0.5851163052033684  0.6632522552713553  1.0000
  Si  Si12      1.0  0.2858986202171598  0.5845887893042665  0.31475206280978  1.0000
  Si  Si13      1.0  0.7856272808302022  0.8811571683975844  0.32171575051384327  1.0000
  Si  Si14      1.0  0.17834473346365232  0.8795058792557873  0.6667322683057274  1.0000
  Si  Si15      1.0  0.17838114448543269  0.08509350317165508  0.6665947525884053  1.0000
  Si  Si16      1.0  0.7856351110731304  0.08344347070203033  0.3215991095379827  1.0000
  Si  Si17      1.0  0.5860653252344599  0.38022895930895717  0.3043584879232941  1.0000
  Si  Si18      1.0  0.5859741090232053  0.5843637696207251  0.30434925092620796  1.0000
  Si  Si19      1.0  0.8817853230421405  0.8802951057997889  0.6814547490251307  1.0000
  Si  Si20      1.0  0.08509668831306798  0.8804491576301372  0.310322359544011  1.0000
  Si  Si21      1.0  0.08509171793753278  0.08410904467588905  0.3102065004828376  1.0000
  Si  Si22      1.0  0.8818227157554291  0.0843262152555412  0.6813572587847748  1.0000
  O   O1        1.0  0.5085401051396313  0.20798468645988355  0.9664654612640338  1.0000
  O   O2        1.0  0.5084121648043696  0.7566504461060942  0.96654585648753  1.0000
  O   O3        1.0  0.007780918733183539  0.7148387423133795  0.9627451363660005  1.0000
  O   O4        1.0  0.007930579647351006  0.24972128807134278  0.962603822617699  1.0000
  O   O5        1.0  0.3037365251034467  0.1395683888672961  0.7724641993315565  1.0000
  O   O6        1.0  0.6705361844449134  0.14740995467633516  0.21915805530549073  1.0000
  O   O7        1.0  0.6705577343815415  0.8171957615275908  0.2192401564444447  1.0000
  O   O8        1.0  0.3036548350328738  0.8249865259393961  0.77256677680612  1.0000
  O   O9        1.0  0.8079849979401332  0.6440214206349629  0.7661604737626653  1.0000
  O   O10       1.0  0.16687171353119395  0.6438502326020636  0.20704817916886023  1.0000
  O   O11       1.0  0.1669631404913223  0.32067837242559694  0.2070168461753741  1.0000
  O   O12       1.0  0.808077687927042  0.32059094194732396  0.7661037566538687  1.0000
  O   O13       1.0  0.3143247512812297  0.3152122820096991  0.8029978837987612  1.0000
  O   O14       1.0  0.6442074714090128  0.3220003741359022  0.18655618332650029  1.0000
  O   O15       1.0  0.6441213824000053  0.6426231044937551  0.18659746169002928  1.0000
  O   O16       1.0  0.3143306244889153  0.6493271910736201  0.8030347139481631  1.0000
  O   O17       1.0  0.8178675934208562  0.8205279187862065  0.7932579286694316  1.0000
  O   O18       1.0  0.14296449783714893  0.8211074517303273  0.19427001251946388  1.0000
  O   O19       1.0  0.14293140422126419  0.14340312837453192  0.19409294701171204  1.0000
  O   O20       1.0  0.8178721452224029  0.1441079061282718  0.7931466617100934  1.0000
  O   O21       1.0  0.2720453419739204  0.21947964516777804  0.027196263392047774  1.0000
  O   O22       1.0  0.7691763603890169  0.2385854798199192  0.017733080257309426  1.0000
  O   O23       1.0  0.7689516234485837  0.7260882223792184  0.017642127245191097  1.0000
  O   O24       1.0  0.2718830134252186  0.745024460804761  0.027129449961000026  1.0000
  O   O25       1.0  0.42625633216597936  0.360882246134409  0.2717716252008284  1.0000
  O   O26       1.0  0.5524039949650167  0.35581683948577975  0.7191539955240815  1.0000
  O   O27       1.0  0.5523198256802044  0.608772071673145  0.7191237592606932  1.0000
  O   O28       1.0  0.42615516661964664  0.6036492072944635  0.2717657179912004  1.0000
  O   O29       1.0  0.925163515563235  0.8620464852076817  0.277203135101758  1.0000
  O   O30       1.0  0.04052026335053048  0.8560777348738445  0.7129807204230847  1.0000
  O   O31       1.0  0.040573113678930184  0.10855864210858841  0.7129075405188808  1.0000
  O   O32       1.0  0.9251572181557988  0.10254046110071915  0.27707098937295577  1.0000
  O   O33       1.0  0.2953623760973417  0.3506875093439311  0.49274377971209016  1.0000
  O   O34       1.0  0.6662894840442027  0.35443197829290785  0.4817896609167542  1.0000
  O   O35       1.0  0.6662004771431137  0.6101652851714982  0.481788093659197  1.0000
  O   O36       1.0  0.29522988573206  0.613785651800843  0.49273084521527144  1.0000
  O   O37       1.0  0.7993643924726818  0.8593930814107218  0.5030444824236782  1.0000
  O   O38       1.0  0.16513959612279544  0.853711920364977  0.48699447369751264  1.0000
  O   O39       1.0  0.16514451328948376  0.11086782117820557  0.4868497644737503  1.0000
  O   O40       1.0  0.7993735239839765  0.10520522172587249  0.5029383376605848  1.0000
  O   O41       1.0  0.24010395551514635  0.48225330456524024  0.28339976082915597  1.0000
  O   O42       1.0  0.7288360947054756  0.48229362209105064  0.6960934971870614  1.0000
  O   O43       1.0  0.7356789152134833  0.9822991056324595  0.2806221364779066  1.0000
  O   O44       1.0  0.21846816976060984  0.9823001433299949  0.700216433180605  1.0000
  O   O45       1.0  0.34767440046919157  0.48225919876396783  0.733443534466005  1.0000
  O   O46       1.0  0.613516296767352  0.4823002337255829  0.2667536877526242  1.0000
  O   O47       1.0  0.86193571520739  0.9823220568169224  0.7268217678175942  1.0000
  O   O48       1.0  0.11396713907937943  0.9822719479733565  0.2724728688123884  1.0000
