data_image0
_chemical_formula_structural       Ge2Si22O48
_chemical_formula_sum              "Ge2 Si22 O48"
_cell_length_a       10.694166321725424
_cell_length_b       15.600742421951274
_cell_length_c       9.21186270623138
_cell_angle_alpha    90.00333056054481
_cell_angle_beta     105.68050268030512
_cell_angle_gamma    89.86762783141809

_space_group_name_H-M_alt    "P 1"
_space_group_IT_number       1

loop_
  _space_group_symop_operation_xyz
  'x, y, z'

loop_
  _atom_site_type_symbol
  _atom_site_label
  _atom_site_symmetry_multiplicity
  _atom_site_fract_x
  _atom_site_fract_y
  _atom_site_fract_z
  _atom_site_occupancy
  Ge  Ge1       1.0  0.3478180409237307  0.22630248046105544  0.8871220702491287  1.0000
  Ge  Ge2       1.0  0.8809034802778645  0.08566971243028766  0.6867615638680422  1.0000
  Si  Si1       1.0  0.6484093661901372  0.2318462608614754  0.10141280972746597  1.0000
  Si  Si2       1.0  0.6375595900525683  0.7360707167565799  0.09858326588814846  1.0000
  Si  Si3       1.0  0.34110768891357385  0.7391775101867372  0.887611538944446  1.0000
  Si  Si4       1.0  0.8406722003114159  0.7240877614464466  0.8885371418494132  1.0000
  Si  Si5       1.0  0.13726586127425597  0.7285234938524273  0.09674638194155785  1.0000
  Si  Si6       1.0  0.14068884487712835  0.23638624799055655  0.09985852407068416  1.0000
  Si  Si7       1.0  0.8477123697001532  0.24324693623262858  0.8955352413186249  1.0000
  Si  Si8       1.0  0.2824057229921553  0.38162912990442915  0.32044683150901143  1.0000
  Si  Si9       1.0  0.6733111190719155  0.37988491169795896  0.6676327350597138  1.0000
  Si  Si10      1.0  0.6743531080445361  0.5853797679395532  0.6643682706678021  1.0000
  Si  Si11      1.0  0.28203239352937537  0.5849895211257478  0.3212594128907916  1.0000
  Si  Si12      1.0  0.7805573828586033  0.8805525922923634  0.32166435322053866  1.0000
  Si  Si13      1.0  0.1738051031722969  0.8774847281567103  0.6616113420206414  1.0000
  Si  Si14      1.0  0.18002434692929167  0.08349202298068546  0.6620706981983073  1.0000
  Si  Si15      1.0  0.7790302774899371  0.08381629765036798  0.3205536647748693  1.0000
  Si  Si16      1.0  0.37800556569572363  0.3829267295702696  0.6805797372044838  1.0000
  Si  Si17      1.0  0.579334806715393  0.38083537767563896  0.30900216452275064  1.0000
  Si  Si18      1.0  0.5793993813492339  0.585087205353358  0.3069681078435533  1.0000
  Si  Si19      1.0  0.3789220894040077  0.5868283840131941  0.6802845931829271  1.0000
  Si  Si20      1.0  0.8792519377663544  0.8772583374746994  0.6823085550620659  1.0000
  Si  Si21      1.0  0.07715127627821015  0.8798390959522597  0.30361260191038797  1.0000
  Si  Si22      1.0  0.07739325032106197  0.0835501746617092  0.30470054704900057  1.0000
  O   O1        1.0  0.5185598001343437  0.21379184169691517  0.9570797709994912  1.0000
  O   O2        1.0  0.49787601928346387  0.7563375117411789  0.9705605983967305  1.0000
  O   O3        1.0  0.9978836146953776  0.7071685404644664  0.9695658202280706  1.0000
  O   O4        1.0  0.007375713751243791  0.25923350088263225  0.9627621727672595  1.0000
  O   O5        1.0  0.3086141314765308  0.1375992731301281  0.7617129152031302  1.0000
  O   O6        1.0  0.6637177509936127  0.1462350738763228  0.21455131860090387  1.0000
  O   O7        1.0  0.6632308773933644  0.8180699796795579  0.22042498900843052  1.0000
  O   O8        1.0  0.2963638019892376  0.8199231031050228  0.7652570016980028  1.0000
  O   O9        1.0  0.7967285261644788  0.6418866782362972  0.76976842167981  1.0000
  O   O10       1.0  0.16394781449539794  0.6467943072648453  0.21901595657019282  1.0000
  O   O11       1.0  0.164649251664921  0.3188011070839736  0.22085348761890194  1.0000
  O   O12       1.0  0.7956964642083353  0.322446176074756  0.7719494430876684  1.0000
  O   O13       1.0  0.309467882157608  0.3267427972708924  0.793137730672422  1.0000
  O   O14       1.0  0.6405407951825985  0.3226428876113331  0.19404094793893512  1.0000
  O   O15       1.0  0.6368206985848761  0.6429071254444085  0.18809791396698575  1.0000
  O   O16       1.0  0.31782018615975477  0.6451223215316938  0.7962436547105004  1.0000
  O   O17       1.0  0.8165998685528886  0.8170626768591681  0.7940587711346958  1.0000
  O   O18       1.0  0.13453062295856164  0.8218699750613486  0.18477316709994784  1.0000
  O   O19       1.0  0.13065134058278044  0.1433839482524717  0.1854018419757374  1.0000
  O   O20       1.0  0.8159137331282198  0.14655798470931294  0.8118946865157048  1.0000
  O   O21       1.0  0.2707492335160708  0.22244706352574753  0.03472266053213681  1.0000
  O   O22       1.0  0.7787043132316457  0.24466793103264858  0.0370480698888717  1.0000
  O   O23       1.0  0.7584648612432868  0.7277004996142306  0.017578033334142484  1.0000
  O   O24       1.0  0.258042233454563  0.737340438382819  0.01583291938594988  1.0000
  O   O25       1.0  0.4197637525126513  0.36180754941160437  0.2718741788529825  1.0000
  O   O26       1.0  0.5366211730380643  0.3589354799472525  0.7172522476446458  1.0000
  O   O27       1.0  0.5373717318669672  0.6088579741441138  0.7115991525450837  1.0000
  O   O28       1.0  0.4202331441007777  0.6046346430756414  0.2747962869796545  1.0000
  O   O29       1.0  0.9182982930515589  0.8606217960335101  0.2741603181285414  1.0000
  O   O30       1.0  0.037345780543231726  0.8544403833040817  0.7100868308459378  1.0000
  O   O31       1.0  0.04834547885205827  0.11219382882815687  0.7179786105166488  1.0000
  O   O32       1.0  0.9191903954971341  0.10297658473731032  0.2790213591056954  1.0000
  O   O33       1.0  0.2994081046289066  0.35915848019532076  0.5023750892085643  1.0000
  O   O34       1.0  0.6565122104013135  0.3541735199140329  0.4868038403871233  1.0000
  O   O35       1.0  0.6600614347839141  0.6112030640267161  0.48395173467931224  1.0000
  O   O36       1.0  0.29690091697860543  0.609223600893346  0.5023101369977048  1.0000
  O   O37       1.0  0.7962931595560135  0.8582889404477453  0.5035505155018396  1.0000
  O   O38       1.0  0.1585580743928213  0.8535160255651224  0.4803281962176918  1.0000
  O   O39       1.0  0.16179478491215518  0.10818032768576821  0.48076643651557344  1.0000
  O   O40       1.0  0.7874787937215552  0.11002480700844537  0.4998707884217433  1.0000
  O   O41       1.0  0.23422316435729104  0.48336843976607424  0.2828693468464253  1.0000
  O   O42       1.0  0.7160532391927367  0.48261643538997656  0.6992287922422378  1.0000
  O   O43       1.0  0.7317176618047606  0.9821468016101502  0.28317113504256963  1.0000
  O   O44       1.0  0.21579591246820432  0.9800366686433974  0.6966998207107894  1.0000
  O   O45       1.0  0.3558183009117443  0.4849669422275698  0.7227417979258116  1.0000
  O   O46       1.0  0.6072081452885159  0.48276943369748637  0.27102230988562276  1.0000
  O   O47       1.0  0.857521085728689  0.9776999510143604  0.7360790474263569  1.0000
  O   O48       1.0  0.10362098074712059  0.9817482460149775  0.2638768231264719  1.0000
