data_image0
_chemical_formula_structural       Ge2Si22O48
_chemical_formula_sum              "Ge2 Si22 O48"
_cell_length_a       10.858466851713763
_cell_length_b       15.566639561286271
_cell_length_c       9.23107229901316
_cell_angle_alpha    90.05811449759122
_cell_angle_beta     105.73082564383154
_cell_angle_gamma    89.87817235558917

_space_group_name_H-M_alt    "P 1"
_space_group_IT_number       1

loop_
  _space_group_symop_operation_xyz
  'x, y, z'

loop_
  _atom_site_type_symbol
  _atom_site_label
  _atom_site_symmetry_multiplicity
  _atom_site_fract_x
  _atom_site_fract_y
  _atom_site_fract_z
  _atom_site_occupancy
  Ge  Ge1       1.0  0.33442984819191346  0.22802333398112437  0.8810538863412135  1.0000
  Ge  Ge2       1.0  0.5763860246191518  0.3812195802365362  0.2958836639951509  1.0000
  Si  Si1       1.0  0.63405945054671  0.2247829374834612  0.09394847685161341  1.0000
  Si  Si2       1.0  0.627546706242419  0.7423348033312391  0.08991191050862567  1.0000
  Si  Si3       1.0  0.33263611580653785  0.7406898351876908  0.8812676922297069  1.0000
  Si  Si4       1.0  0.8323910947177933  0.7283202919618922  0.8812206360263622  1.0000
  Si  Si5       1.0  0.12743445041332033  0.7277431281156108  0.08938734021284664  1.0000
  Si  Si6       1.0  0.1252712520958376  0.24068281985833015  0.09847437768933082  1.0000
  Si  Si7       1.0  0.834998989858681  0.23913375286712407  0.8833082239974811  1.0000
  Si  Si8       1.0  0.28149851146724975  0.38180281932465054  0.31698340605994213  1.0000
  Si  Si9       1.0  0.6758317403683656  0.3819573958215569  0.6620340930037291  1.0000
  Si  Si10      1.0  0.6744850002747822  0.5879689329830371  0.6559927657683967  1.0000
  Si  Si11      1.0  0.28521849572646596  0.5877540507038325  0.3159666455763387  1.0000
  Si  Si12      1.0  0.7845697786660647  0.8814815675019615  0.3169731465778125  1.0000
  Si  Si13      1.0  0.17340400792100713  0.8790888710219599  0.6535201405528862  1.0000
  Si  Si14      1.0  0.17461423375654087  0.08381336977551  0.6539537334117167  1.0000
  Si  Si15      1.0  0.7865397590753175  0.08562854563196129  0.3195838524826908  1.0000
  Si  Si16      1.0  0.3848047158278009  0.38481739619495176  0.6757298086714749  1.0000
  Si  Si17      1.0  0.5767321497476711  0.5900811920958263  0.2971947639635953  1.0000
  Si  Si18      1.0  0.38377519479421013  0.5896833470602267  0.6735316690581309  1.0000
  Si  Si19      1.0  0.8837540300577348  0.8806992864796266  0.6755350281890544  1.0000
  Si  Si20      1.0  0.07498137967819557  0.8802584370971741  0.2954486498144697  1.0000
  Si  Si21      1.0  0.07405618085529717  0.08440405335625523  0.29524270163977706  1.0000
  Si  Si22      1.0  0.8879862057686145  0.08531680494364148  0.6786104733688878  1.0000
  O   O1        1.0  0.4897730360253981  0.19759790368713043  0.9875263742662418  1.0000
  O   O2        1.0  0.48020467216677754  0.7636061151741558  0.9842548920116027  1.0000
  O   O3        1.0  0.9803367132357831  0.7057889617095999  0.983988356110288  1.0000
  O   O4        1.0  0.9806545620948728  0.26367998075316346  0.9886331421169031  1.0000
  O   O5        1.0  0.2977929688229788  0.14290288054515746  0.748065346645764  1.0000
  O   O6        1.0  0.668061602886594  0.1485181246790019  0.22608776265797847  1.0000
  O   O7        1.0  0.6647809116551537  0.8230301932875939  0.21375142939777111  1.0000
  O   O8        1.0  0.2933597837437992  0.8200291092529742  0.7550999747743201  1.0000
  O   O9        1.0  0.7937156910182203  0.6473725829892137  0.7579391207258263  1.0000
  O   O10       1.0  0.16582661930064005  0.6468112688070999  0.2126870881609159  1.0000
  O   O11       1.0  0.15983766758012352  0.3212754214945197  0.22329157503117728  1.0000
  O   O12       1.0  0.7939908429993021  0.32276697515020614  0.7666678774280455  1.0000
  O   O13       1.0  0.322400374665548  0.3307629493001527  0.7944465643545294  1.0000
  O   O14       1.0  0.6426923783600245  0.3232926121651883  0.16973716322471263  1.0000
  O   O15       1.0  0.6349706622716317  0.6489870118380497  0.1813762000274887  1.0000
  O   O16       1.0  0.32531754556673587  0.6462230243500137  0.7926351504704473  1.0000
  O   O17       1.0  0.8246941114594869  0.8226290206761405  0.7921143313915361  1.0000
  O   O18       1.0  0.1331818350525309  0.8220382772686803  0.17810344793649818  1.0000
  O   O19       1.0  0.13290020122401336  0.14479249823329632  0.1818315181400094  1.0000
  O   O20       1.0  0.8288730055600205  0.14598987518019052  0.7916287999198408  1.0000
  O   O21       1.0  0.2300982406296182  0.2349730217031725  0.9978175329737221  1.0000
  O   O22       1.0  0.7371207544763645  0.22496563018310498  0.9909170070231926  1.0000
  O   O23       1.0  0.7310707343013026  0.7351730517588578  0.9870140219325871  1.0000
  O   O24       1.0  0.2310833827986834  0.734728737968785  0.9866931789999099  1.0000
  O   O25       1.0  0.409979122943814  0.35722036755649117  0.25536203024277754  1.0000
  O   O26       1.0  0.5410793118056694  0.3622886204935867  0.7115775119117191  1.0000
  O   O27       1.0  0.5403627906623955  0.6102390295227912  0.7057789579842296  1.0000
  O   O28       1.0  0.4195032725258795  0.6082505523741263  0.2656963343651389  1.0000
  O   O29       1.0  0.918240519302154  0.8606430705892825  0.26522700481646155  1.0000
  O   O30       1.0  0.03986459936832455  0.8584285333438049  0.7052924776778061  1.0000
  O   O31       1.0  0.0448108899283322  0.1056113299621627  0.7126808776834948  1.0000
  O   O32       1.0  0.9173515773582892  0.10467330565979142  0.2616015647429635  1.0000
  O   O33       1.0  0.3069216728532186  0.35776381906298965  0.4993772546650562  1.0000
  O   O34       1.0  0.6616770828156565  0.35233556992435794  0.4829949595923266  1.0000
  O   O35       1.0  0.6564617312103235  0.6133114816382703  0.4749881631181293  1.0000
  O   O36       1.0  0.30339550492913464  0.6146252673437278  0.49655653258353216  1.0000
  O   O37       1.0  0.8030273234796186  0.8565681836744355  0.49830965707228897  1.0000
  O   O38       1.0  0.15480423073155938  0.8543657590016172  0.47212149414090937  1.0000
  O   O39       1.0  0.1518584639223576  0.10908937484004265  0.4726439052743854  1.0000
  O   O40       1.0  0.8099450213492686  0.11005213682834844  0.5013640519218533  1.0000
  O   O41       1.0  0.2404276880961716  0.48503962378893356  0.28426672661839836  1.0000
  O   O42       1.0  0.7183177222962419  0.485163350922797  0.6900134919937414  1.0000
  O   O43       1.0  0.7386940652309086  0.9838936403776427  0.28436595711761103  1.0000
  O   O44       1.0  0.21914042867860462  0.9813213260655701  0.6872128183392472  1.0000
  O   O45       1.0  0.3591142210532012  0.4873288218804189  0.7117905003174674  1.0000
  O   O46       1.0  0.6058415957990957  0.48917659204985897  0.2520969227298539  1.0000
  O   O47       1.0  0.861700356702074  0.983172277613379  0.717901339631826  1.0000
  O   O48       1.0  0.10072476692928874  0.982371894090666  0.2552679180652522  1.0000
