data_image0
_chemical_formula_structural       Ge2Si22O48
_chemical_formula_sum              "Ge2 Si22 O48"
_cell_length_a       10.642310118067353
_cell_length_b       15.609058619509623
_cell_length_c       9.191791784413962
_cell_angle_alpha    89.87099150956969
_cell_angle_beta     105.41375574667751
_cell_angle_gamma    89.97929967789392

_space_group_name_H-M_alt    "P 1"
_space_group_IT_number       1

loop_
  _space_group_symop_operation_xyz
  'x, y, z'

loop_
  _atom_site_type_symbol
  _atom_site_label
  _atom_site_symmetry_multiplicity
  _atom_site_fract_x
  _atom_site_fract_y
  _atom_site_fract_z
  _atom_site_occupancy
  Ge  Ge        1.0  0.29602461035790717  0.3775487478802156  0.3156211133262286  1.0000
  Ge  Ge        1.0  0.7078529841681004  0.5764297863334273  0.6599271912423756  1.0000
  Si  Si        1.0  0.33559132443441425  0.22474353327657665  0.8875210408449571  1.0000
  Si  Si        1.0  0.6308563627186122  0.21681024462445012  0.09336930935355668  1.0000
  Si  Si        1.0  0.6681455946555374  0.7291611453339294  0.0880227958536396  1.0000
  Si  Si        1.0  0.3728703994027171  0.7371660825960858  0.8820977574586765  1.0000
  Si  Si        1.0  0.8770746914446722  0.7195708115124826  0.8849199568756384  1.0000
  Si  Si        1.0  0.1728645486715042  0.7304476979577375  0.09554039674634283  1.0000
  Si  Si        1.0  0.12667212486687685  0.2344256969661574  0.09055433868719384  1.0000
  Si  Si        1.0  0.8308892010542812  0.22354385386256273  0.8800284123213273  1.0000
  Si  Si        1.0  0.6955841774853287  0.36928252217174234  0.6551229582733549  1.0000
  Si  Si        1.0  0.3083330905981021  0.584727859627054  0.32047597698796343  1.0000
  Si  Si        1.0  0.8088393619988425  0.8725493218947785  0.3151142610144586  1.0000
  Si  Si        1.0  0.20359606978656472  0.8769709219263689  0.6586405850656869  1.0000
  Si  Si        1.0  0.19496492677834393  0.08137725116679195  0.6603899821837818  1.0000
  Si  Si        1.0  0.8001276511833055  0.07695402080493068  0.31688871885779557  1.0000
  Si  Si        1.0  0.3988413661592165  0.37668697241688565  0.6821767640631021  1.0000
  Si  Si        1.0  0.5993557767762426  0.37298737800348675  0.2940774055321424  1.0000
  Si  Si        1.0  0.6049760907028325  0.5772415696412546  0.2933472696440206  1.0000
  Si  Si        1.0  0.4045411379155789  0.5809237302119087  0.6815695721288246  1.0000
  Si  Si        1.0  0.9056930690353442  0.8716234717893695  0.6735788933719223  1.0000
  Si  Si        1.0  0.10659660818774812  0.8786478099788955  0.2998459218554952  1.0000
  Si  Si        1.0  0.09821205673536214  0.08238784202469003  0.3020505939301323  1.0000
  Si  Si        1.0  0.8971301747893198  0.07537504747134198  0.6755652916152642  1.0000
  O   O2        1.0  0.47128038992771265  0.20147246759902282  0.02080554694489769  1.0000
  O   O2        1.0  0.5323945354429325  0.7525975545707533  0.9549539713596101  1.0000
  O   O2        1.0  0.03604391765812771  0.7082682485499814  0.964486156663186  1.0000
  O   O2        1.0  0.9676481045897689  0.2456564957457814  0.011255365849187276  1.0000
  O   O2        1.0  0.3113047800811439  0.14418750080982456  0.7630062087692088  1.0000
  O   O2        1.0  0.6780630360187001  0.13573637678722653  0.21471483246341044  1.0000
  O   O2        1.0  0.6925664665060501  0.8096059196411758  0.21275179616248657  1.0000
  O   O2        1.0  0.32572553896976003  0.8181174690068754  0.7604687367296595  1.0000
  O   O2        1.0  0.8423698701941658  0.6353866752476572  0.7681058325764011  1.0000
  O   O2        1.0  0.1954930083471487  0.6518636309224347  0.22388045060054243  1.0000
  O   O2        1.0  0.16151332421736772  0.3186805037863097  0.2072013807744232  1.0000
  O   O2        1.0  0.8084008907210033  0.3021629947671087  0.7517597819643246  1.0000
  O   O2        1.0  0.34439403178522315  0.3192197629834437  0.8046987674193044  1.0000
  O   O2        1.0  0.6603040364842255  0.3120451302584273  0.180636117025696  1.0000
  O   O2        1.0  0.6593621251573337  0.6346260557060396  0.1706802154572505  1.0000
  O   O2        1.0  0.34359996082074606  0.641854637808612  0.7950290306552908  1.0000
  O   O2        1.0  0.8453734029939013  0.8121188797913922  0.7895289474132822  1.0000
  O   O2        1.0  0.1684051134602053  0.8248542037029908  0.17937325179990637  1.0000
  O   O2        1.0  0.15846824061862907  0.14191887873664846  0.18607849442150604  1.0000
  O   O2        1.0  0.8354394195378697  0.1291848095274469  0.7961108412103295  1.0000
  O   O2        1.0  0.2090424196948566  0.23433455696519512  0.9605597704474914  1.0000
  O   O2        1.0  0.7058469647198556  0.21653063592224214  0.9562042099099338  1.0000
  O   O2        1.0  0.7945251496780977  0.7196175738543181  0.014719295942919732  1.0000
  O   O2        1.0  0.29770749893951987  0.7375640904385642  0.01906774008059779  1.0000
  O   O2        1.0  0.4387791860574954  0.35161815737982427  0.25799939118524046  1.0000
  O   O2        1.0  0.5565531219991833  0.35480068775845564  0.7040549060057035  1.0000
  O   O2        1.0  0.5651431448176442  0.6022485864807424  0.7177269892872278  1.0000
  O   O2        1.0  0.4472720639764742  0.5992682598608927  0.2713684131678953  1.0000
  O   O2        1.0  0.9485970268880385  0.8540249840874962  0.2692175179237582  1.0000
  O   O2        1.0  0.06568227479830863  0.8521987292917417  0.704616838125873  1.0000
  O   O2        1.0  0.05509449776546707  0.09998354667245554  0.7059484666097747  1.0000
  O   O2        1.0  0.9382207434987421  0.10167957263306648  0.2712793921380274  1.0000
  O   O2        1.0  0.3098382033164393  0.3505833497230805  0.5078771353320846  1.0000
  O   O2        1.0  0.677238045641068  0.3483901927732678  0.4723253446480508  1.0000
  O   O2        1.0  0.6939341341091911  0.6033850407973396  0.46763742062144703  1.0000
  O   O2        1.0  0.32681147570963454  0.6055871269190088  0.5033150948926037  1.0000
  O   O2        1.0  0.823951249056787  0.8477863371840411  0.49632802251937774  1.0000
  O   O2        1.0  0.1901672761337526  0.8546073565043298  0.4768242400226252  1.0000
  O   O2        1.0  0.18013868700508479  0.10616208057932511  0.47925781268868745  1.0000
  O   O2        1.0  0.8132830775198194  0.09936614314155208  0.4986537605261393  1.0000
  O   O2        1.0  0.24773432641461066  0.4862209507375199  0.27588025358056867  1.0000
  O   O2        1.0  0.7562306967692585  0.46777497529321527  0.6997480350275931  1.0000
  O   O2        1.0  0.75972948366908  0.9741503173500125  0.27839514222119127  1.0000
  O   O2        1.0  0.24396116274814109  0.9797675627598101  0.6971645274437325  1.0000
  O   O2        1.0  0.377527666597438  0.479305867263017  0.7226385467494023  1.0000
  O   O2        1.0  0.62628077701379  0.4746095440715712  0.25294842038382315  1.0000
  O   O2        1.0  0.8779795106579842  0.9726112613791233  0.7159734635950356  1.0000
  O   O2        1.0  0.12578483711096264  0.9814108805575661  0.259473404222274  1.0000
