data_image0
_chemical_formula_structural       Ge2Si22O48
_chemical_formula_sum              "Ge2 Si22 O48"
_cell_length_a       10.689305781414301
_cell_length_b       15.595268405952021
_cell_length_c       9.213811951062667
_cell_angle_alpha    89.98521222081355
_cell_angle_beta     105.67997294436033
_cell_angle_gamma    89.84126921361002

_space_group_name_H-M_alt    "P 1"
_space_group_IT_number       1

loop_
  _space_group_symop_operation_xyz
  'x, y, z'

loop_
  _atom_site_type_symbol
  _atom_site_label
  _atom_site_symmetry_multiplicity
  _atom_site_fract_x
  _atom_site_fract_y
  _atom_site_fract_z
  _atom_site_occupancy
  Ge  Ge1       1.0  0.3481604211332044  0.2232045326454331  0.889918119653751  1.0000
  Ge  Ge2       1.0  0.3781868055644287  0.5874027293678401  0.6807076531397159  1.0000
  Si  Si1       1.0  0.6494745684341425  0.23026569462254018  0.10184518971457532  1.0000
  Si  Si2       1.0  0.6398858679099054  0.7365190694921678  0.09696932004518094  1.0000
  Si  Si3       1.0  0.3425657873840258  0.742148463368819  0.8919039733048384  1.0000
  Si  Si4       1.0  0.8417579790938972  0.7264703956612576  0.8854044509842285  1.0000
  Si  Si5       1.0  0.13772700868110602  0.730774364413749  0.09531731979230035  1.0000
  Si  Si6       1.0  0.13966463823967468  0.2363638505648742  0.10027774221541796  1.0000
  Si  Si7       1.0  0.8474256138108054  0.2397106460394424  0.8900326701298358  1.0000
  Si  Si8       1.0  0.28399455206219965  0.38100829250564533  0.3184566503163727  1.0000
  Si  Si9       1.0  0.6758562171662413  0.37977929372130687  0.6643782693269563  1.0000
  Si  Si10      1.0  0.68039887764957  0.5854036768055149  0.6634411815655578  1.0000
  Si  Si11      1.0  0.2812954857088641  0.5856086371600862  0.3153679192642704  1.0000
  Si  Si12      1.0  0.7788312325791851  0.8819450530719029  0.3219221900370274  1.0000
  Si  Si13      1.0  0.17171255437520128  0.8767510206817012  0.6629353706205039  1.0000
  Si  Si14      1.0  0.17441616439245652  0.08277343970725626  0.6633008882475814  1.0000
  Si  Si15      1.0  0.7805086508898534  0.08386846500547797  0.3264758775169806  1.0000
  Si  Si16      1.0  0.3792419861679397  0.37947465621939913  0.6785136268159597  1.0000
  Si  Si17      1.0  0.5804379284405444  0.38081673329231985  0.3047005163151161  1.0000
  Si  Si18      1.0  0.5802648251883894  0.5852256344035794  0.3046348498072104  1.0000
  Si  Si19      1.0  0.8780316430431153  0.8800449128760403  0.6822945068827847  1.0000
  Si  Si20      1.0  0.07638292271898775  0.8806009112091615  0.306430692334251  1.0000
  Si  Si21      1.0  0.07765772392104954  0.08396834381739475  0.30748951015276693  1.0000
  Si  Si22      1.0  0.8813538509495663  0.08450893277594683  0.6859993871151383  1.0000
  O   O1        1.0  0.5182297702102134  0.20795347404971873  0.9615155749713833  1.0000
  O   O2        1.0  0.5008998672912393  0.7575401653722218  0.9678363876227396  1.0000
  O   O3        1.0  0.00035195982088226044  0.7124075481454983  0.962997956556925  1.0000
  O   O4        1.0  0.006405597799524863  0.25727273893877073  0.961978940917436  1.0000
  O   O5        1.0  0.3039959369058077  0.13406869709458413  0.7670299971976745  1.0000
  O   O6        1.0  0.6671619175071786  0.1497345413290319  0.22600104886552774  1.0000
  O   O7        1.0  0.6640513563269772  0.8182315807927566  0.21941806241372236  1.0000
  O   O8        1.0  0.29677564520184724  0.8209111893040366  0.7658060202467685  1.0000
  O   O9        1.0  0.801951527646247  0.6439333956367564  0.7659940578726442  1.0000
  O   O10       1.0  0.16198908612829488  0.6444144506682212  0.2075113506003507  1.0000
  O   O11       1.0  0.16360438872114325  0.3201558041908412  0.21833151161496334  1.0000
  O   O12       1.0  0.7956735312692397  0.31994589200916174  0.7681832012060371  1.0000
  O   O13       1.0  0.31197995764754105  0.3218987959684319  0.7901149060430107  1.0000
  O   O14       1.0  0.6413752405069557  0.3236948074194954  0.18764070928663362  1.0000
  O   O15       1.0  0.6380893129475401  0.6434504073984199  0.18654910389434137  1.0000
  O   O16       1.0  0.3121248048092194  0.6456042849350077  0.8078966575356351  1.0000
  O   O17       1.0  0.8134781789943513  0.820775785422136  0.7940972226685347  1.0000
  O   O18       1.0  0.1332481296702261  0.8216719195620042  0.18887448415508526  1.0000
  O   O19       1.0  0.13057470455974737  0.1440165191289054  0.18821625229936295  1.0000
  O   O20       1.0  0.821755288905407  0.144551574130866  0.8015255938156594  1.0000
  O   O21       1.0  0.2710023762925999  0.22285710140203846  0.03739831257828753  1.0000
  O   O22       1.0  0.7763092423941209  0.23842245678054655  0.029953974215836916  1.0000
  O   O23       1.0  0.7612019975393322  0.7270479646760915  0.01646569692052807  1.0000
  O   O24       1.0  0.2632474127669318  0.7451710760423483  0.023570502452271293  1.0000
  O   O25       1.0  0.420717432630936  0.36158533840054213  0.26782992073773065  1.0000
  O   O26       1.0  0.5391957182639994  0.36031573780940096  0.7151391729983162  1.0000
  O   O27       1.0  0.5472570004117492  0.6104553969656875  0.7192486744847622  1.0000
  O   O28       1.0  0.4210139825170051  0.6048743184730675  0.27224636935897034  1.0000
  O   O29       1.0  0.9165324388195475  0.8644128324279201  0.27307930112297535  1.0000
  O   O30       1.0  0.035899140294864816  0.8544988920453696  0.7135308206177418  1.0000
  O   O31       1.0  0.039625613563253115  0.10749517765164116  0.7145536161716908  1.0000
  O   O32       1.0  0.918354357836279  0.10082563833723793  0.27816455666753725  1.0000
  O   O33       1.0  0.30291571779101273  0.3558339040302997  0.49967904655349066  1.0000
  O   O34       1.0  0.6575962036859249  0.35442347652027134  0.4829630426090319  1.0000
  O   O35       1.0  0.6607821468851844  0.6107594539597242  0.48194322275103574  1.0000
  O   O36       1.0  0.29041431673175644  0.6154985002685625  0.4934228204639672  1.0000
  O   O37       1.0  0.7958840236421707  0.8591359796407495  0.5038556407992081  1.0000
  O   O38       1.0  0.1548796805923716  0.8511586688313865  0.4822311391957178  1.0000
  O   O39       1.0  0.15881820874577057  0.1106746282297873  0.4837104968104099  1.0000
  O   O40       1.0  0.7974075648546829  0.10640058588757861  0.5084070636739959  1.0000
  O   O41       1.0  0.23647378922008874  0.4830950153640317  0.28465134542316545  1.0000
  O   O42       1.0  0.7214091330779561  0.4822270710069794  0.6966901125749062  1.0000
  O   O43       1.0  0.7274993233438156  0.9833963463797751  0.285455752159937  1.0000
  O   O44       1.0  0.21277185093341208  0.9794882810376249  0.6942886387884344  1.0000
  O   O45       1.0  0.3483602942048436  0.47963670315587914  0.7241916416410711  1.0000
  O   O46       1.0  0.607935253059916  0.4830097557921356  0.2676992837965381  1.0000
  O   O47       1.0  0.8601402049541573  0.9822262923917114  0.7291240839962241  1.0000
  O   O48       1.0  0.10809207371059543  0.9822118711688802  0.27025637849053546  1.0000
