data_image0
_chemical_formula_structural       Ge2Si22O48
_chemical_formula_sum              "Ge2 Si22 O48"
_cell_length_a       10.738989280679652
_cell_length_b       15.58840917257176
_cell_length_c       9.197083668781426
_cell_angle_alpha    90.17556582019364
_cell_angle_beta     105.55952010321784
_cell_angle_gamma    89.57254882100558

_space_group_name_H-M_alt    "P 1"
_space_group_IT_number       1

loop_
  _space_group_symop_operation_xyz
  'x, y, z'

loop_
  _atom_site_type_symbol
  _atom_site_label
  _atom_site_symmetry_multiplicity
  _atom_site_fract_x
  _atom_site_fract_y
  _atom_site_fract_z
  _atom_site_occupancy
  Ge  Ge1       1.0  0.34604493280385884  0.2265707260349889  0.8834790637847713  1.0000
  Ge  Ge2       1.0  0.8137200767477578  0.7305810297662928  0.8850647309209926  1.0000
  Si  Si1       1.0  0.6457079683407996  0.2319737974662975  0.09389627359827903  1.0000
  Si  Si2       1.0  0.6056693932301075  0.7433777942121726  0.09641562709767039  1.0000
  Si  Si3       1.0  0.3145766879961231  0.7379086088010319  0.8876673315017829  1.0000
  Si  Si4       1.0  0.11422031545150671  0.72752568946366  0.0975361756520833  1.0000
  Si  Si5       1.0  0.1380980718675574  0.2392243294119236  0.09625178019840124  1.0000
  Si  Si6       1.0  0.8467460916538657  0.24230442468916982  0.8854173963589342  1.0000
  Si  Si7       1.0  0.28220359142945967  0.3832019989000073  0.31677091139910435  1.0000
  Si  Si8       1.0  0.6738390418273915  0.3794903862580763  0.6574641261006191  1.0000
  Si  Si9       1.0  0.6741081111853637  0.5845029245302443  0.6574548626408515  1.0000
  Si  Si10      1.0  0.28149350478556984  0.5872296727012284  0.3220710938774614  1.0000
  Si  Si11      1.0  0.7784945031155488  0.8839179291100081  0.31537452144441086  1.0000
  Si  Si12      1.0  0.169759634025946  0.8787123242208834  0.6575498270637747  1.0000
  Si  Si13      1.0  0.17504866565878668  0.08380314524382823  0.6575101892914197  1.0000
  Si  Si14      1.0  0.7819238631568137  0.0880559579600791  0.32053982766484745  1.0000
  Si  Si15      1.0  0.38118456729712763  0.3831882956073262  0.6762791387250296  1.0000
  Si  Si16      1.0  0.5763374095543963  0.3828611223804903  0.2975019291714306  1.0000
  Si  Si17      1.0  0.5752010580325999  0.5868623046547751  0.2997047602443121  1.0000
  Si  Si18      1.0  0.3819879496761617  0.5877940644414266  0.6805390484000489  1.0000
  Si  Si19      1.0  0.8772670969833243  0.8838652689647281  0.674854044647678  1.0000
  Si  Si20      1.0  0.07332828064086493  0.8821349709862172  0.2977262414056825  1.0000
  Si  Si21      1.0  0.07614387113290594  0.08591801426246452  0.2996686265510951  1.0000
  Si  Si22      1.0  0.8824929175176334  0.08869918495809104  0.6784286010251118  1.0000
  O   O1        1.0  0.5145592561016018  0.20788358354724956  0.9557740504385253  1.0000
  O   O2        1.0  0.4478273531774246  0.7617271083539623  0.022858813539552728  1.0000
  O   O3        1.0  0.9566037706104427  0.7074114366574271  0.028949468638205748  1.0000
  O   O4        1.0  0.0037628911240953486  0.2614383393942684  0.9612615583873325  1.0000
  O   O5        1.0  0.3016320995988302  0.1385140165367045  0.7575733002838626  1.0000
  O   O6        1.0  0.6663105232948499  0.15166395959618054  0.21870969010040126  1.0000
  O   O7        1.0  0.6576026935807855  0.8245538950286999  0.21566023473017495  1.0000
  O   O8        1.0  0.28820123000570025  0.8175479032329682  0.7608395155781362  1.0000
  O   O9        1.0  0.797638762574089  0.641971982519738  0.7589114089901027  1.0000
  O   O10       1.0  0.1626404891868656  0.6487207574814388  0.22257085311220237  1.0000
  O   O11       1.0  0.16298544318501867  0.3219627987089852  0.21723568867879256  1.0000
  O   O12       1.0  0.7953025068070397  0.32060006995473084  0.7594793033499191  1.0000
  O   O13       1.0  0.3144064784192595  0.32771375713494877  0.7907511861865988  1.0000
  O   O14       1.0  0.6353369929635312  0.32576085097909674  0.17829661711630237  1.0000
  O   O15       1.0  0.6322529505093202  0.6484166653890249  0.1849748825337483  1.0000
  O   O16       1.0  0.3255046083993456  0.6443945641197958  0.8023335311579469  1.0000
  O   O17       1.0  0.8126757369953781  0.8307692510502358  0.7929613542845733  1.0000
  O   O18       1.0  0.13577160427917837  0.8238104955988467  0.18202557235896766  1.0000
  O   O19       1.0  0.13111010340894544  0.1459437028398352  0.1823294231666404  1.0000
  O   O20       1.0  0.824867350307836  0.14665167201042226  0.7985426804344989  1.0000
  O   O21       1.0  0.266985975866343  0.22639815816484968  0.029406695161598426  1.0000
  O   O22       1.0  0.7715856470276975  0.2413692665112407  0.021647150557164253  1.0000
  O   O23       1.0  0.6760747566826603  0.740414142188878  0.9557995883658315  1.0000
  O   O24       1.0  0.19013514099429982  0.7270517216066195  0.9621518026353268  1.0000
  O   O25       1.0  0.4185104439253806  0.3621828785693423  0.26702949025800543  1.0000
  O   O26       1.0  0.5380073846522488  0.35703481904214834  0.7066010706963795  1.0000
  O   O27       1.0  0.538679609764766  0.6098502011376892  0.7057821598460114  1.0000
  O   O28       1.0  0.4176619947940097  0.6083848747632637  0.273514479508115  1.0000
  O   O29       1.0  0.9144966351308628  0.8623085335488285  0.2648586834940729  1.0000
  O   O30       1.0  0.03342929657879938  0.8571531325796014  0.7057696819868735  1.0000
  O   O31       1.0  0.0400431111599702  0.11039397249067076  0.706086451940726  1.0000
  O   O32       1.0  0.9189659444185054  0.10740707765289047  0.2731922415489582  1.0000
  O   O33       1.0  0.2992681254525428  0.36034423492494544  0.4987949627637088  1.0000
  O   O34       1.0  0.6576028064888725  0.35749790836958323  0.4747514224821352  1.0000
  O   O35       1.0  0.6598822864481013  0.6086392777720782  0.4766297831577763  1.0000
  O   O36       1.0  0.2967739292200051  0.6107418143971823  0.5039238789232549  1.0000
  O   O37       1.0  0.7956930123668846  0.8603952739131444  0.4974006101462971  1.0000
  O   O38       1.0  0.15327769306181285  0.8564233994841539  0.4751277532979963  1.0000
  O   O39       1.0  0.16066687756032216  0.10805111090738628  0.47655129963643317  1.0000
  O   O40       1.0  0.7976294973766652  0.11241119631157193  0.502062602634653  1.0000
  O   O41       1.0  0.23588808617527515  0.4855224598385212  0.2815286161759976  1.0000
  O   O42       1.0  0.7160882860247708  0.48189067856067136  0.6949644728861777  1.0000
  O   O43       1.0  0.733851513309573  0.9867165304236719  0.28133016993235266  1.0000
  O   O44       1.0  0.2141683016730479  0.980692087656772  0.6948616108041565  1.0000
  O   O45       1.0  0.3621220347879302  0.4852794837372124  0.7217147749410109  1.0000
  O   O46       1.0  0.5994103785416008  0.4850215264875073  0.25589764974863055  1.0000
  O   O47       1.0  0.8597922960144098  0.9865618595882059  0.7183523649632216  1.0000
  O   O48       1.0  0.09919224735093737  0.9837510378578016  0.2564567965599733  1.0000
