data_image0
_chemical_formula_structural       Ge2Si22O48
_chemical_formula_sum              "Ge2 Si22 O48"
_cell_length_a       10.694054453958639
_cell_length_b       15.598808818418544
_cell_length_c       9.214650300069062
_cell_angle_alpha    90.14051086682001
_cell_angle_beta     105.64396642196336
_cell_angle_gamma    89.6521553357819

_space_group_name_H-M_alt    "P 1"
_space_group_IT_number       1

loop_
  _space_group_symop_operation_xyz
  'x, y, z'

loop_
  _atom_site_type_symbol
  _atom_site_label
  _atom_site_symmetry_multiplicity
  _atom_site_fract_x
  _atom_site_fract_y
  _atom_site_fract_z
  _atom_site_occupancy
  Ge  Ge1       1.0  0.3458978013127753  0.2256311508399547  0.8884285457843023  1.0000
  Ge  Ge2       1.0  0.8771042939315772  0.8789027121848683  0.6835800525771123  1.0000
  Si  Si1       1.0  0.6467197720405954  0.2304033210454442  0.1013059711172805  1.0000
  Si  Si2       1.0  0.6371540960759633  0.7349707996211917  0.09814064569241876  1.0000
  Si  Si3       1.0  0.3411606345620551  0.7387060669036147  0.8858548169991113  1.0000
  Si  Si4       1.0  0.840245316347465  0.7226318820371281  0.8917643659928484  1.0000
  Si  Si5       1.0  0.13693636769891296  0.7289619295763218  0.09427282046221062  1.0000
  Si  Si6       1.0  0.1387423430291629  0.2370208976493446  0.10136159295416931  1.0000
  Si  Si7       1.0  0.8464140669965714  0.2420065429507555  0.8917866453908038  1.0000
  Si  Si8       1.0  0.28117037783919685  0.381924732250062  0.3208538944169987  1.0000
  Si  Si9       1.0  0.6728733274441947  0.37975561345431347  0.6655409148871191  1.0000
  Si  Si10      1.0  0.6726349013749613  0.5853916447886277  0.6652420482401304  1.0000
  Si  Si11      1.0  0.2803263753105494  0.5852571151080951  0.32097287510351225  1.0000
  Si  Si12      1.0  0.7768445027510816  0.8813698188667715  0.3175117009322989  1.0000
  Si  Si13      1.0  0.1769279040261107  0.8766997863076725  0.6603558151876242  1.0000
  Si  Si14      1.0  0.1745509531896424  0.0828397967079391  0.6616946779629834  1.0000
  Si  Si15      1.0  0.7803263797448838  0.08463538741966985  0.3251504639729814  1.0000
  Si  Si16      1.0  0.3778602576508938  0.3823126675057319  0.6802543508892586  1.0000
  Si  Si17      1.0  0.5784410243780742  0.3806731584637093  0.3070297462213222  1.0000
  Si  Si18      1.0  0.5779234248590506  0.5847992251502043  0.3081340199313338  1.0000
  Si  Si19      1.0  0.37702744653515224  0.5863648723451891  0.6798868671758275  1.0000
  Si  Si20      1.0  0.07577727710037965  0.8801813504242391  0.3026013730931286  1.0000
  Si  Si21      1.0  0.07645707293374884  0.08389546279174975  0.3049285637526347  1.0000
  Si  Si22      1.0  0.8805751177905417  0.08730027447961033  0.6849024122722095  1.0000
  O   O1        1.0  0.5155856035359031  0.20864317169542887  0.9607039523240656  1.0000
  O   O2        1.0  0.498981646345335  0.7525972350486214  0.9663743498355384  1.0000
  O   O3        1.0  0.9987697965291449  0.7063823251990518  0.9657834146581099  1.0000
  O   O4        1.0  0.005018123710255192  0.25918249553578065  0.9648042583880877  1.0000
  O   O5        1.0  0.3014712033205288  0.13721629183448697  0.7635389638238074  1.0000
  O   O6        1.0  0.6652862588453119  0.14920960706210326  0.22401114556890386  1.0000
  O   O7        1.0  0.6596618028863932  0.8211135658637876  0.2108590009425493  1.0000
  O   O8        1.0  0.30090697643780867  0.819604774788028  0.7628864999732037  1.0000
  O   O9        1.0  0.7949437027697869  0.6424377923649416  0.7689033712922869  1.0000
  O   O10       1.0  0.16380629987189885  0.6478692836753696  0.21773745403890793  1.0000
  O   O11       1.0  0.16256322368759837  0.31964009142759087  0.22197998805942018  1.0000
  O   O12       1.0  0.7951178329445862  0.3228215385264247  0.771577790279419  1.0000
  O   O13       1.0  0.31138222635562807  0.3262069535588108  0.7943628284526849  1.0000
  O   O14       1.0  0.6377278152233851  0.323335167566302  0.1885458136511212  1.0000
  O   O15       1.0  0.6361969170323093  0.6438879268231612  0.1924131521158102  1.0000
  O   O16       1.0  0.3142671725392799  0.6443311840267885  0.7953267428199222  1.0000
  O   O17       1.0  0.8095202809253059  0.8190030761634828  0.8068728790821356  1.0000
  O   O18       1.0  0.13102971845790679  0.8222720639818155  0.18161292622519848  1.0000
  O   O19       1.0  0.1305721861900143  0.14384822917897308  0.1868270221982796  1.0000
  O   O20       1.0  0.821138980763301  0.14834616103948195  0.7991807820779827  1.0000
  O   O21       1.0  0.2689701135600618  0.22441611638786074  0.0361515868760279  1.0000
  O   O22       1.0  0.7740145344327993  0.23922870026763046  0.030457680117249707  1.0000
  O   O23       1.0  0.7621183208674152  0.7217114507822415  0.024726042035413044  1.0000
  O   O24       1.0  0.2583522459960506  0.7394444739461613  0.014551075776216366  1.0000
  O   O25       1.0  0.4193274074897677  0.36114150236168713  0.2741755767640822  1.0000
  O   O26       1.0  0.5357134674571646  0.35706376703717063  0.7126968301735661  1.0000
  O   O27       1.0  0.5350334588920835  0.6095991452162183  0.7108866384101916  1.0000
  O   O28       1.0  0.41907205115189866  0.6051048158970993  0.27636991335663147  1.0000
  O   O29       1.0  0.9173156418725074  0.861217222995259  0.2762765734097132  1.0000
  O   O30       1.0  0.043629047871552154  0.8496289100366948  0.7136109460824626  1.0000
  O   O31       1.0  0.03880539608382809  0.10831858780004572  0.7105317679482102  1.0000
  O   O32       1.0  0.9182658776098234  0.10386454599825691  0.27870639011163556  1.0000
  O   O33       1.0  0.29654169810622744  0.35986708324249034  0.5025108419483282  1.0000
  O   O34       1.0  0.6585050597927833  0.3549450609012291  0.4845613056511809  1.0000
  O   O35       1.0  0.6592778036617293  0.6098787448832579  0.4849071862774125  1.0000
  O   O36       1.0  0.2939344710336156  0.6083359569313803  0.502210205127909  1.0000
  O   O37       1.0  0.7841438634464206  0.8551839105876912  0.4964951929440837  1.0000
  O   O38       1.0  0.15970080066510628  0.8537449485378648  0.4783352314887183  1.0000
  O   O39       1.0  0.16024540797335476  0.10788942381062917  0.481370278612528  1.0000
  O   O40       1.0  0.7955880270319794  0.106693289376175  0.5069999710971732  1.0000
  O   O41       1.0  0.23320763409397757  0.4836598377125057  0.2814438365125666  1.0000
  O   O42       1.0  0.7137304931281584  0.48249017433280694  0.7006773993447333  1.0000
  O   O43       1.0  0.730780453282771  0.9837695167821435  0.2831794921027794  1.0000
  O   O44       1.0  0.21410154969662923  0.979746557103412  0.6964088941109271  1.0000
  O   O45       1.0  0.3570627613941687  0.4844169415791478  0.7239594255625845  1.0000
  O   O46       1.0  0.6045304436998405  0.48272566247391663  0.2685978683563226  1.0000
  O   O47       1.0  0.8576125434093536  0.9868931608437523  0.7369742556212042  1.0000
  O   O48       1.0  0.1020026746501895  0.9820315411245997  0.26295846809817225  1.0000
