data_image0
_chemical_formula_structural       Ge2Si22O48
_chemical_formula_sum              "Ge2 Si22 O48"
_cell_length_a       10.656582637127599
_cell_length_b       15.609146339911437
_cell_length_c       9.207898226204174
_cell_angle_alpha    90.00441309525888
_cell_angle_beta     105.59654325211888
_cell_angle_gamma    90.1819587739321

_space_group_name_H-M_alt    "P 1"
_space_group_IT_number       1

loop_
  _space_group_symop_operation_xyz
  'x, y, z'

loop_
  _atom_site_type_symbol
  _atom_site_label
  _atom_site_symmetry_multiplicity
  _atom_site_fract_x
  _atom_site_fract_y
  _atom_site_fract_z
  _atom_site_occupancy
  Ge  Ge1       1.0  0.29834025781644063  0.3766385300152687  0.3176933397919039  1.0000
  Ge  Ge2       1.0  0.4015597860161143  0.5855507656652322  0.6771753363566742  1.0000
  Si  Si1       1.0  0.33662090476654294  0.22608858459844178  0.8885944504032441  1.0000
  Si  Si2       1.0  0.6325861629274026  0.22106608215348109  0.09313278231053233  1.0000
  Si  Si3       1.0  0.6638062424344084  0.7311623556520339  0.08993124216545141  1.0000
  Si  Si4       1.0  0.3669313889016582  0.7428089807535602  0.8859990319537476  1.0000
  Si  Si5       1.0  0.8668372292565308  0.7235049763101363  0.879253421770714  1.0000
  Si  Si6       1.0  0.16302121691341911  0.7307360443152497  0.09112013778190284  1.0000
  Si  Si7       1.0  0.12776503788314822  0.23367035339093703  0.09080253841301222  1.0000
  Si  Si8       1.0  0.8306913756947811  0.23154197732195872  0.8786558545914287  1.0000
  Si  Si9       1.0  0.6960908588182786  0.37863495119870827  0.6586733256994775  1.0000
  Si  Si10      1.0  0.7046855075221603  0.5824263497948475  0.6567329447903724  1.0000
  Si  Si11      1.0  0.3023868263791647  0.5851186431630009  0.31133397108058636  1.0000
  Si  Si12      1.0  0.8039603304411334  0.8758478094329352  0.3171262711628669  1.0000
  Si  Si13      1.0  0.19764093620507578  0.8803529685294966  0.6620500824992683  1.0000
  Si  Si14      1.0  0.19168783178664522  0.08535537626048152  0.6590150139338772  1.0000
  Si  Si15      1.0  0.7991836426049705  0.07892413270824494  0.31348791740680176  1.0000
  Si  Si16      1.0  0.3988568847601924  0.3776475449142578  0.6832981413363569  1.0000
  Si  Si17      1.0  0.6013284549072831  0.375671116002437  0.29846507145028217  1.0000
  Si  Si18      1.0  0.6015896119663663  0.5797881487859134  0.2964918999977465  1.0000
  Si  Si19      1.0  0.9001344812473403  0.877821398790794  0.6765165826184226  1.0000
  Si  Si20      1.0  0.10233170885303487  0.8786450564183271  0.30459577119158915  1.0000
  Si  Si21      1.0  0.09785211286581563  0.08225449030902471  0.30126864599726805  1.0000
  Si  Si22      1.0  0.8944854626110865  0.08157449358029975  0.6731230645951539  1.0000
  O   O1        1.0  0.4731575770745372  0.20438864367954812  0.02121567574103118  1.0000
  O   O2        1.0  0.5266991038237369  0.7553718498304075  0.9599655070133897  1.0000
  O   O3        1.0  0.02612194338447047  0.711820958223458  0.9574023310723159  1.0000
  O   O4        1.0  0.9693503642062791  0.24676370052114002  0.0111137048533674  1.0000
  O   O5        1.0  0.31109458871609885  0.14608457912472997  0.7627116030595156  1.0000
  O   O6        1.0  0.6796661530015161  0.13853950639772583  0.2101486423039789  1.0000
  O   O7        1.0  0.6893719561171782  0.8112565741240498  0.21555053003349367  1.0000
  O   O8        1.0  0.3218846311061825  0.8245690642019845  0.7664583142584783  1.0000
  O   O9        1.0  0.8269673204546442  0.6423506833194937  0.7562942142500896  1.0000
  O   O10       1.0  0.18517753495248315  0.645517471088248  0.20513741922326292  1.0000
  O   O11       1.0  0.1641954702137964  0.31634034691281  0.21100533124337303  1.0000
  O   O12       1.0  0.8120251418981134  0.3159051723404606  0.7623166618195372  1.0000
  O   O13       1.0  0.34547572793888115  0.32030787695659885  0.8060194704520826  1.0000
  O   O14       1.0  0.6631845088578584  0.31476740420258276  0.18619478834775885  1.0000
  O   O15       1.0  0.658307857572831  0.6375510598860411  0.17637779925034525  1.0000
  O   O16       1.0  0.3336297040635963  0.6474320964429772  0.7983660340085159  1.0000
  O   O17       1.0  0.8377974890019253  0.8183063437431397  0.7905499911380285  1.0000
  O   O18       1.0  0.1610649246401972  0.821293017529625  0.18659150797282423  1.0000
  O   O19       1.0  0.15707694777717185  0.1399914333026781  0.1825223389531311  1.0000
  O   O20       1.0  0.82919236185998  0.1397603359021208  0.7847503875418339  1.0000
  O   O21       1.0  0.2106830746712795  0.23475110607359181  0.9620169346256742  1.0000
  O   O22       1.0  0.7064304283339359  0.22357666813855814  0.9555173941152336  1.0000
  O   O23       1.0  0.7860978618392468  0.7210315261231603  0.01047315340689676  1.0000
  O   O24       1.0  0.2897247481202396  0.7441549085613491  0.020167719412671127  1.0000
  O   O25       1.0  0.4406510446376283  0.3536472208126198  0.258257416785828  1.0000
  O   O26       1.0  0.558779390997  0.36292825808548634  0.7103692223507051  1.0000
  O   O27       1.0  0.572302691818639  0.6054478390915954  0.7162899710093319  1.0000
  O   O28       1.0  0.4419822863570243  0.5988276654431612  0.2638867825551814  1.0000
  O   O29       1.0  0.9431089488880019  0.8577269702192707  0.2710822042187992  1.0000
  O   O30       1.0  0.060113726558810775  0.8576383721682552  0.710166144793478  1.0000
  O   O31       1.0  0.053153563097617845  0.10522690862614457  0.7062425427133023  1.0000
  O   O32       1.0  0.9373973586678952  0.09985528952249824  0.2663461897408725  1.0000
  O   O33       1.0  0.3151929568904314  0.34734768036174235  0.5090707454634896  1.0000
  O   O34       1.0  0.6768734046701336  0.35193151769162756  0.4778263646302182  1.0000
  O   O35       1.0  0.6816026061136574  0.6061095758061357  0.47386527110492666  1.0000
  O   O36       1.0  0.3171262800698  0.6156275333121243  0.48992977545937905  1.0000
  O   O37       1.0  0.8196623733867199  0.8533406411062917  0.4988402369964306  1.0000
  O   O38       1.0  0.18284043940611247  0.8536452614994333  0.4818942224820851  1.0000
  O   O39       1.0  0.17634543821265136  0.11019043613559285  0.4780430485492759  1.0000
  O   O40       1.0  0.8139184812497303  0.10320554486183225  0.4944331221918659  1.0000
  O   O41       1.0  0.2463188761958117  0.48456698175842666  0.2802445018636767  1.0000
  O   O42       1.0  0.7485257574298986  0.479890014167566  0.6905957855551709  1.0000
  O   O43       1.0  0.7532989573815896  0.9766703996572842  0.27703213299358687  1.0000
  O   O44       1.0  0.23831409430919104  0.9835452990662601  0.694176315269273  1.0000
  O   O45       1.0  0.36548106931230223  0.4788169739135009  0.7210124953987629  1.0000
  O   O46       1.0  0.6286008098442007  0.47751906725027743  0.25898449520411143  1.0000
  O   O47       1.0  0.8738903714085082  0.9794616856956067  0.7174106669382905  1.0000
  O   O48       1.0  0.12873164345654955  0.9806690894153252  0.2657285425506263  1.0000
