data_image0
_chemical_formula_structural       Ge2Si22O48
_chemical_formula_sum              "Ge2 Si22 O48"
_cell_length_a       10.736271458996296
_cell_length_b       15.589659936543981
_cell_length_c       9.194895749808298
_cell_angle_alpha    90.23792638717828
_cell_angle_beta     105.54416512974788
_cell_angle_gamma    89.60684893919556

_space_group_name_H-M_alt    "P 1"
_space_group_IT_number       1

loop_
  _space_group_symop_operation_xyz
  'x, y, z'

loop_
  _atom_site_type_symbol
  _atom_site_label
  _atom_site_symmetry_multiplicity
  _atom_site_fract_x
  _atom_site_fract_y
  _atom_site_fract_z
  _atom_site_occupancy
  Ge  Ge1       1.0  0.34292269174247586  0.22613895201982354  0.8895244445995281  1.0000
  Ge  Ge2       1.0  0.6386317837576448  0.7359218344924865  0.0971822426823743  1.0000
  Si  Si1       1.0  0.642555271516401  0.22887530510091653  0.10205844491306569  1.0000
  Si  Si2       1.0  0.33821977626016136  0.7403667819889543  0.8830446227683243  1.0000
  Si  Si3       1.0  0.8464350009656598  0.724305049439923  0.8854913693413343  1.0000
  Si  Si4       1.0  0.13758598329831406  0.7287547629244644  0.09256735568508388  1.0000
  Si  Si5       1.0  0.1346251138336759  0.23770898347220812  0.10200857039094562  1.0000
  Si  Si6       1.0  0.8432834419896914  0.2403035069484366  0.8932644130285342  1.0000
  Si  Si7       1.0  0.27925365494436155  0.38140576918458574  0.32260540517996134  1.0000
  Si  Si8       1.0  0.6708294257046123  0.379043596867524  0.6671986915057636  1.0000
  Si  Si9       1.0  0.6720817436564438  0.5850819105911983  0.6652782865592026  1.0000
  Si  Si10      1.0  0.2810902770882454  0.5856295717220202  0.31998902112163546  1.0000
  Si  Si11      1.0  0.7774207766002773  0.8830419541571789  0.32557688036888643  1.0000
  Si  Si12      1.0  0.17028170080360544  0.8786117011362298  0.6575954901700789  1.0000
  Si  Si13      1.0  0.17213978223366844  0.08347232502699457  0.6614512781192302  1.0000
  Si  Si14      1.0  0.7785841769914794  0.08577988272709818  0.3284315601803023  1.0000
  Si  Si15      1.0  0.37680240085277333  0.3829616033338842  0.6823018443951951  1.0000
  Si  Si16      1.0  0.5744874773223151  0.37782931362477995  0.3089785593794024  1.0000
  Si  Si17      1.0  0.576010149644088  0.5825709855203276  0.30725406225259677  1.0000
  Si  Si18      1.0  0.37800508493220997  0.5871296002149792  0.6803133705685168  1.0000
  Si  Si19      1.0  0.8792203703533745  0.8810391997911625  0.6850805907516955  1.0000
  Si  Si20      1.0  0.07025007390214313  0.8802762840587335  0.299349142605078  1.0000
  Si  Si21      1.0  0.07176498800196676  0.08416916838748442  0.30382358446994917  1.0000
  Si  Si22      1.0  0.8804791560870912  0.08495122949744563  0.6880500829397289  1.0000
  O   O1        1.0  0.5110770948112393  0.20635573756263428  0.9631256476269445  1.0000
  O   O2        1.0  0.49596356020756305  0.7597313227176888  0.9534034962145799  1.0000
  O   O3        1.0  0.004210065458729017  0.7051213027465033  0.9573260457981644  1.0000
  O   O4        1.0  0.0003349516258243274  0.26015963172061546  0.9673185950700831  1.0000
  O   O5        1.0  0.29786736643860057  0.1393416418886117  0.7607008278851184  1.0000
  O   O6        1.0  0.6621055729879708  0.14907174998172235  0.2276654568714801  1.0000
  O   O7        1.0  0.6558753343896405  0.8226640743113386  0.2275236838470483  1.0000
  O   O8        1.0  0.29139496493963335  0.8192666585188862  0.7579847799270474  1.0000
  O   O9        1.0  0.7941668356797813  0.6433000357877863  0.7658050464099239  1.0000
  O   O10       1.0  0.16420595609661864  0.6477527172690348  0.21653446064322748  1.0000
  O   O11       1.0  0.15953092140340128  0.32019083051135094  0.22371787476993044  1.0000
  O   O12       1.0  0.7912399255875046  0.3205386526851496  0.7719125855004072  1.0000
  O   O13       1.0  0.3115716066107182  0.32779118765099313  0.7986170610850631  1.0000
  O   O14       1.0  0.6338745362343603  0.3222889671588631  0.188314764711404  1.0000
  O   O15       1.0  0.638151354863727  0.6349398369862399  0.18611546758229008  1.0000
  O   O16       1.0  0.3141847768697953  0.6449213993184341  0.7954539008854993  1.0000
  O   O17       1.0  0.8201863721446228  0.8197121248279786  0.798466120781648  1.0000
  O   O18       1.0  0.12524247764795357  0.8218511060501582  0.17840652859984626  1.0000
  O   O19       1.0  0.12649855754822517  0.1441281700983596  0.18625619678942656  1.0000
  O   O20       1.0  0.8219271229820773  0.14495817829435537  0.8050212521684096  1.0000
  O   O21       1.0  0.26358636610347275  0.22493220506742256  0.03522728499959992  1.0000
  O   O22       1.0  0.7688643161044716  0.2372809926028854  0.030219854458747933  1.0000
  O   O23       1.0  0.7766509777283875  0.7270159973752824  0.026801150931617262  1.0000
  O   O24       1.0  0.26198640786069705  0.7408210963509025  0.018217773361329473  1.0000
  O   O25       1.0  0.4156429724681557  0.35925840852203306  0.2735906594154834  1.0000
  O   O26       1.0  0.5347255387192232  0.3593559653766251  0.7176748087586429  1.0000
  O   O27       1.0  0.5366979478223609  0.6080514132300705  0.7163768799780801  1.0000
  O   O28       1.0  0.4177516661336816  0.6041774072437182  0.2705569666281402  1.0000
  O   O29       1.0  0.9122244321705404  0.861881801666175  0.27296458649239314  1.0000
  O   O30       1.0  0.03612345176983084  0.8574291488079236  0.7106275359816803  1.0000
  O   O31       1.0  0.03805537320880527  0.10659902629293928  0.7147180849174355  1.0000
  O   O32       1.0  0.9143495870871875  0.10479287256451203  0.278016052431831  1.0000
  O   O33       1.0  0.29686845815817686  0.3584209786625529  0.5047638564151441  1.0000
  O   O34       1.0  0.653002123848381  0.3510467248946661  0.4864277649203026  1.0000
  O   O35       1.0  0.6540301843553145  0.6107069259592345  0.48390133559019216  1.0000
  O   O36       1.0  0.29910063844578033  0.610829414063906  0.5017817850943025  1.0000
  O   O37       1.0  0.7951627731832243  0.8601107510452153  0.5075358187231315  1.0000
  O   O38       1.0  0.15249595603033655  0.8540875317377685  0.4756605297366617  1.0000
  O   O39       1.0  0.1546972175785585  0.10872172912738982  0.4803418430844967  1.0000
  O   O40       1.0  0.796292806741557  0.10800283153677853  0.5111514807111702  1.0000
  O   O41       1.0  0.23350123128847552  0.4837210745601871  0.28522831460123077  1.0000
  O   O42       1.0  0.7141205534363081  0.4819050727520135  0.6976248021190499  1.0000
  O   O43       1.0  0.7291613954907996  0.9847760782404589  0.28875613037211306  1.0000
  O   O44       1.0  0.2147272541475927  0.9806273875247625  0.6937951293208419  1.0000
  O   O45       1.0  0.35323713701385767  0.4854709662438667  0.7215415664671307  1.0000
  O   O46       1.0  0.6029220169367562  0.47977643459059355  0.27411423405803514  1.0000
  O   O47       1.0  0.8588470946402608  0.9829974626062135  0.7323809865133738  1.0000
  O   O48       1.0  0.09654273593278266  0.9823021781406047  0.2602967451819814  1.0000
