data_image0
_chemical_formula_structural       Ge2Si22O48
_chemical_formula_sum              "Ge2 Si22 O48"
_cell_length_a       10.699049194198663
_cell_length_b       15.606097760911476
_cell_length_c       9.214331418179473
_cell_angle_alpha    90.11152317722882
_cell_angle_beta     105.70916854280962
_cell_angle_gamma    89.6186917905468

_space_group_name_H-M_alt    "P 1"
_space_group_IT_number       1

loop_
  _space_group_symop_operation_xyz
  'x, y, z'

loop_
  _atom_site_type_symbol
  _atom_site_label
  _atom_site_symmetry_multiplicity
  _atom_site_fract_x
  _atom_site_fract_y
  _atom_site_fract_z
  _atom_site_occupancy
  Ge  Ge1       1.0  0.34792476853913595  0.2265036803854041  0.884698351588177  1.0000
  Ge  Ge2       1.0  0.5806166091875725  0.5877993363034268  0.3011303892648174  1.0000
  Si  Si1       1.0  0.6490079472470798  0.22934320063809535  0.0959838768191112  1.0000
  Si  Si2       1.0  0.6156853588486195  0.7438507678948381  0.09104223318462205  1.0000
  Si  Si3       1.0  0.31878924148673493  0.7365719124790399  0.8867808731889544  1.0000
  Si  Si4       1.0  0.8185372133296119  0.7311538716345646  0.8845036886757828  1.0000
  Si  Si5       1.0  0.11497826804740957  0.7278011484325002  0.09566717856801536  1.0000
  Si  Si6       1.0  0.14129989646339028  0.23793136036812157  0.09787891512127012  1.0000
  Si  Si7       1.0  0.8486918519694024  0.24006196024905202  0.8866069512374828  1.0000
  Si  Si8       1.0  0.28423148898496253  0.38252581063339974  0.31694727750472523  1.0000
  Si  Si9       1.0  0.6764003646268747  0.38022335505133664  0.6623491454965436  1.0000
  Si  Si10      1.0  0.6779088587539028  0.5854691124153412  0.6661379765234539  1.0000
  Si  Si11      1.0  0.27818403382128776  0.5874203346639949  0.3187386996421171  1.0000
  Si  Si12      1.0  0.7819543473001574  0.8824719292775483  0.31606209239441085  1.0000
  Si  Si13      1.0  0.17410290799695366  0.8783070167166662  0.6584008844439841  1.0000
  Si  Si14      1.0  0.17737367717326327  0.08238773572056558  0.6596971069971412  1.0000
  Si  Si15      1.0  0.7840953459468949  0.08587837498717625  0.3217568689368918  1.0000
  Si  Si16      1.0  0.38078882112872753  0.38282727404731876  0.676098716229375  1.0000
  Si  Si17      1.0  0.580751858156597  0.37952160975729604  0.3017753019792616  1.0000
  Si  Si18      1.0  0.3798287860743046  0.5869261044122787  0.6775360762401261  1.0000
  Si  Si19      1.0  0.8790389750739901  0.8811554797151304  0.6750869796359875  1.0000
  Si  Si20      1.0  0.07824675569369606  0.8814188106080166  0.2996355032432265  1.0000
  Si  Si21      1.0  0.07944791756952488  0.08498532596486152  0.3020513922846438  1.0000
  Si  Si22      1.0  0.8825390474404898  0.08511554525600974  0.6802416415136951  1.0000
  O   O1        1.0  0.5175752165096665  0.20877101174274465  0.9552278442525336  1.0000
  O   O2        1.0  0.45706498072085033  0.7589056513351045  0.015369036773712179  1.0000
  O   O3        1.0  0.9571181623114  0.713944016489835  0.01579785351701335  1.0000
  O   O4        1.0  0.007015975321770727  0.2581650725636933  0.9606510957841572  1.0000
  O   O5        1.0  0.3030175738955018  0.13812146662455407  0.7601923310984481  1.0000
  O   O6        1.0  0.6667897571346382  0.14800264660328116  0.21815482177047324  1.0000
  O   O7        1.0  0.6605643760733689  0.8240879927507262  0.21391852561874436  1.0000
  O   O8        1.0  0.29239010070071564  0.8169369771946406  0.7618418130569882  1.0000
  O   O9        1.0  0.7964856776987381  0.6437922011943097  0.7748724737824825  1.0000
  O   O10       1.0  0.1557923371297096  0.6464446560168756  0.21765640401200517  1.0000
  O   O11       1.0  0.16440240760206157  0.32168931213569035  0.21621433039146165  1.0000
  O   O12       1.0  0.7967954643413062  0.32021634778233  0.7647955082382558  1.0000
  O   O13       1.0  0.3141550267839474  0.3269953519658069  0.7902817582776169  1.0000
  O   O14       1.0  0.6412621214519767  0.32127111299585104  0.1859084016953331  1.0000
  O   O15       1.0  0.6469929544058433  0.6478102157194429  0.1770217716946556  1.0000
  O   O16       1.0  0.32232594769565864  0.6433600977838058  0.7982760081239354  1.0000
  O   O17       1.0  0.8180315674032849  0.8213948867464671  0.7874556794115284  1.0000
  O   O18       1.0  0.1401361922976741  0.8226438617605893  0.18446783993628563  1.0000
  O   O19       1.0  0.135330995703114  0.14535316154082034  0.18605514025607464  1.0000
  O   O20       1.0  0.8249180423976782  0.145110199241026  0.7976399617963014  1.0000
  O   O21       1.0  0.27159255698055956  0.2255494483089445  0.03280625870817996  1.0000
  O   O22       1.0  0.7759083171804736  0.238271391303429  0.02485263165072072  1.0000
  O   O23       1.0  0.6944112470489207  0.7452168822319971  0.9588323135874574  1.0000
  O   O24       1.0  0.19778453622618686  0.7270317676710368  0.9671166943436804  1.0000
  O   O25       1.0  0.421068677069268  0.3620939684158761  0.2672203784733338  1.0000
  O   O26       1.0  0.5397054632821142  0.35997604633586405  0.7119271057556915  1.0000
  O   O27       1.0  0.5381582770997942  0.6072313058140666  0.7078199981535369  1.0000
  O   O28       1.0  0.4117650082757342  0.612024925135311  0.26434050862309294  1.0000
  O   O29       1.0  0.9188658995870828  0.861788600731727  0.2666136503393776  1.0000
  O   O30       1.0  0.03717400495551128  0.8583166392934846  0.7067818403466986  1.0000
  O   O31       1.0  0.041468467363181855  0.10519646585097249  0.7097283798912012  1.0000
  O   O32       1.0  0.9211900852369197  0.105605911507387  0.27384698462428536  1.0000
  O   O33       1.0  0.30228184210567793  0.3580533627521968  0.498275414641013  1.0000
  O   O34       1.0  0.6588063599250789  0.3557232623135135  0.48069184033115114  1.0000
  O   O35       1.0  0.6699337180250181  0.6146032114309078  0.4883295962733908  1.0000
  O   O36       1.0  0.29711588987294385  0.611796420857691  0.5005936971973844  1.0000
  O   O37       1.0  0.7983163162142273  0.8582145089810035  0.4971444817644107  1.0000
  O   O38       1.0  0.15798990252997813  0.855156936403571  0.47678572594421803  1.0000
  O   O39       1.0  0.161787239177449  0.10806580867543517  0.4793515498458577  1.0000
  O   O40       1.0  0.7997906013845674  0.10953604133376665  0.5031611887743158  1.0000
  O   O41       1.0  0.2371833685988952  0.48471450981619807  0.2828142805774197  1.0000
  O   O42       1.0  0.7208846966473905  0.4825125512461845  0.6974118528424409  1.0000
  O   O43       1.0  0.7359706943931545  0.9847998047969839  0.28231587214765047  1.0000
  O   O44       1.0  0.22084196522967636  0.9798428514253799  0.6948972360119513  1.0000
  O   O45       1.0  0.3556331540451785  0.48477376286165047  0.7161110855869924  1.0000
  O   O46       1.0  0.6104883970119389  0.47997015890880224  0.25664151154301246  1.0000
  O   O47       1.0  0.8569971798964447  0.9831660776183063  0.7199242356805894  1.0000
  O   O48       1.0  0.10457324030806678  0.9831302645374799  0.25956456940914935  1.0000
