data_image0
_chemical_formula_structural       Ge2Si22O48
_chemical_formula_sum              "Ge2 Si22 O48"
_cell_length_a       10.785528856261031
_cell_length_b       15.581912506802158
_cell_length_c       9.206731554738809
_cell_angle_alpha    90.07991008305682
_cell_angle_beta     105.55297649175685
_cell_angle_gamma    89.72663789438359

_space_group_name_H-M_alt    "P 1"
_space_group_IT_number       1

loop_
  _space_group_symop_operation_xyz
  'x, y, z'

loop_
  _atom_site_type_symbol
  _atom_site_label
  _atom_site_symmetry_multiplicity
  _atom_site_fract_x
  _atom_site_fract_y
  _atom_site_fract_z
  _atom_site_occupancy
  Ge  Ge1       1.0  0.3430003518054017  0.22540825217130528  0.884668846787971  1.0000
  Ge  Ge2       1.0  0.2755751666649879  0.5877505076672084  0.31831557474376576  1.0000
  Si  Si1       1.0  0.6422017733723699  0.23185206749145632  0.09661226922904667  1.0000
  Si  Si2       1.0  0.6204769563423548  0.7421268567690273  0.09525526750149553  1.0000
  Si  Si3       1.0  0.32577031592503325  0.740210444549076  0.886811824681982  1.0000
  Si  Si4       1.0  0.8205006681548421  0.7310997530121944  0.8783898132359208  1.0000
  Si  Si5       1.0  0.11530352204262641  0.730549104182321  0.08991086067479398  1.0000
  Si  Si6       1.0  0.13325796087420475  0.23701790991358784  0.09592487817061016  1.0000
  Si  Si7       1.0  0.8426455054416645  0.24337440151528367  0.886411692519214  1.0000
  Si  Si8       1.0  0.28073382356116505  0.3789945089907916  0.319025996593919  1.0000
  Si  Si9       1.0  0.6726044236018518  0.3824675475024065  0.6601758971704059  1.0000
  Si  Si10      1.0  0.669480620679648  0.5873014091521725  0.6570793933075166  1.0000
  Si  Si11      1.0  0.7752877591369269  0.884436675808848  0.3184603808143981  1.0000
  Si  Si12      1.0  0.16620947837891847  0.8779546141002729  0.6568530795081209  1.0000
  Si  Si13      1.0  0.17135793970512905  0.08397550339418294  0.6571957800130024  1.0000
  Si  Si14      1.0  0.7790082989939959  0.08743887164474781  0.32293308155368944  1.0000
  Si  Si15      1.0  0.38038150576011004  0.3830683572817101  0.6785194720250194  1.0000
  Si  Si16      1.0  0.5735790420349616  0.38276547851164633  0.29977835928197355  1.0000
  Si  Si17      1.0  0.5737289239113726  0.5877946161366076  0.29716459690945324  1.0000
  Si  Si18      1.0  0.3781249699534779  0.5877890810899239  0.6829585600826721  1.0000
  Si  Si19      1.0  0.8757080777163317  0.8836013087952722  0.6787326332431495  1.0000
  Si  Si20      1.0  0.06814363071370205  0.8816350305017482  0.2992498530485689  1.0000
  Si  Si21      1.0  0.0716802096874062  0.08549502258962054  0.30087085992977647  1.0000
  Si  Si22      1.0  0.881013462594694  0.08792511385515954  0.682090439613537  1.0000
  O   O1        1.0  0.510007968867453  0.20609826279751106  0.9619812624366549  1.0000
  O   O2        1.0  0.471291954961372  0.7648633616799032  0.9946506120966372  1.0000
  O   O3        1.0  0.9690636233110896  0.7099819978112055  0.9811444732183993  1.0000
  O   O4        1.0  0.9986164408910221  0.2627535801554867  0.9650984253070067  1.0000
  O   O5        1.0  0.2984292706122826  0.13805596843653525  0.7573177712023652  1.0000
  O   O6        1.0  0.6650689450862161  0.1524907153542848  0.22348738839304594  1.0000
  O   O7        1.0  0.6578482697578004  0.8222478050503021  0.22023467919359144  1.0000
  O   O8        1.0  0.28655496334495395  0.817834381363753  0.7569704870496301  1.0000
  O   O9        1.0  0.7863736881557538  0.6495896858453087  0.7560472772686619  1.0000
  O   O10       1.0  0.14335273440222476  0.6490544627054585  0.21334174654813726  1.0000
  O   O11       1.0  0.16266627838071387  0.3161491298571786  0.22348582120385974  1.0000
  O   O12       1.0  0.7926658176015668  0.32285151946928564  0.7623268581588557  1.0000
  O   O13       1.0  0.3154143976119154  0.3273419238313719  0.7941675887373478  1.0000
  O   O14       1.0  0.6330125942455312  0.3257333978566565  0.18125408128530954  1.0000
  O   O15       1.0  0.6341649113155503  0.6466809876958506  0.18214444683814635  1.0000
  O   O16       1.0  0.3234424137759464  0.643615486674409  0.806658441014364  1.0000
  O   O17       1.0  0.810568323082599  0.8258463549111547  0.7906847776135886  1.0000
  O   O18       1.0  0.12500387001933508  0.8249968157506217  0.1782151760614773  1.0000
  O   O19       1.0  0.1244394440371777  0.14276000024930344  0.1783304059417679  1.0000
  O   O20       1.0  0.8228602602237625  0.14793573988947845  0.7987275991165258  1.0000
  O   O21       1.0  0.25986636261656487  0.22472679190581332  0.02632551447603866  1.0000
  O   O22       1.0  0.7650029296255761  0.24117104032426778  0.019996889607561387  1.0000
  O   O23       1.0  0.7186237261811663  0.7373952709202751  0.984414756039681  1.0000
  O   O24       1.0  0.2214046831959805  0.734931791497806  0.9894929344844227  1.0000
  O   O25       1.0  0.4164262818448984  0.3610258506416744  0.267718461508836  1.0000
  O   O26       1.0  0.537970937452031  0.36124905815282143  0.711807982556283  1.0000
  O   O27       1.0  0.5343860455631111  0.6086391536068796  0.7073511265239009  1.0000
  O   O28       1.0  0.4162529587979856  0.6127419707648972  0.2603663503994325  1.0000
  O   O29       1.0  0.9101621801710122  0.8634552820828943  0.2673544660702158  1.0000
  O   O30       1.0  0.03162357083089601  0.8573199120711362  0.7088570955202651  1.0000
  O   O31       1.0  0.03804038339265515  0.1094438858377506  0.7090670144792496  1.0000
  O   O32       1.0  0.9149267164232752  0.10600164630065131  0.2738697829356035  1.0000
  O   O33       1.0  0.30148325619692684  0.3571144540516605  0.5018106878130936  1.0000
  O   O34       1.0  0.6538266333989532  0.3586425128839979  0.4777353617499519  1.0000
  O   O35       1.0  0.6523131867103422  0.6109046281672399  0.4753988888674294  1.0000
  O   O36       1.0  0.29070395928825543  0.6162080889803054  0.509821118645476  1.0000
  O   O37       1.0  0.7936415842995994  0.8625570840741605  0.5008713256566807  1.0000
  O   O38       1.0  0.14757924750120177  0.8532993286555125  0.4750607425082767  1.0000
  O   O39       1.0  0.15483173738347655  0.11067127067461967  0.47672624446136824  1.0000
  O   O40       1.0  0.7966627552321576  0.11005507837702026  0.5051887524479157  1.0000
  O   O41       1.0  0.2260683958547372  0.4794621463974665  0.27829716683394046  1.0000
  O   O42       1.0  0.7159196642070101  0.48519247547344385  0.694355778120513  1.0000
  O   O43       1.0  0.7283567490388603  0.986640980518088  0.28165984329210414  1.0000
  O   O44       1.0  0.20999659065389467  0.9804690312731966  0.6897449260899811  1.0000
  O   O45       1.0  0.354827796647882  0.4850060806143232  0.7188458036946423  1.0000
  O   O46       1.0  0.5960560570647926  0.48504100979867026  0.2579278555798843  1.0000
  O   O47       1.0  0.8591338905772994  0.9859498131299297  0.7257571979403612  1.0000
  O   O48       1.0  0.09743781746320361  0.9832774377517418  0.26204263638899616  1.0000
