data_image0
_chemical_formula_structural       Ge2Si22O48
_chemical_formula_sum              "Ge2 Si22 O48"
_cell_length_a       10.800948182308884
_cell_length_b       15.590643494648152
_cell_length_c       9.212279801494999
_cell_angle_alpha    90.00608988072811
_cell_angle_beta     105.57343499716342
_cell_angle_gamma    90.00105417665841

_space_group_name_H-M_alt    "P 1"
_space_group_IT_number       1

loop_
  _space_group_symop_operation_xyz
  'x, y, z'

loop_
  _atom_site_type_symbol
  _atom_site_label
  _atom_site_symmetry_multiplicity
  _atom_site_fract_x
  _atom_site_fract_y
  _atom_site_fract_z
  _atom_site_occupancy
  Ge  Ge1       1.0  0.2857230020406083  0.38089040879422464  0.3171791267427923  1.0000
  Ge  Ge2       1.0  0.6812191662937513  0.3809687164098919  0.6560877772661373  1.0000
  Si  Si1       1.0  0.3365843649922657  0.2266293085298809  0.8841194490629402  1.0000
  Si  Si2       1.0  0.632069689405221  0.2267711986669719  0.08916077097388093  1.0000
  Si  Si3       1.0  0.6310657737437813  0.740094804600035  0.09195091455990786  1.0000
  Si  Si4       1.0  0.3363622777756029  0.7401714165234976  0.8813307853529991  1.0000
  Si  Si5       1.0  0.836456679172304  0.7291563454641236  0.8819359314160826  1.0000
  Si  Si6       1.0  0.13102344084643497  0.7291398957330877  0.09134687818505068  1.0000
  Si  Si7       1.0  0.13180806131144518  0.23456899733852382  0.09386985102397105  1.0000
  Si  Si8       1.0  0.8369786859522811  0.2348004219007764  0.8793149089053163  1.0000
  Si  Si9       1.0  0.6798964677384896  0.5888796578291673  0.6553127008035045  1.0000
  Si  Si10      1.0  0.2870963123672599  0.5887923974086793  0.31782558764034446  1.0000
  Si  Si11      1.0  0.7877854702463132  0.8808462572307755  0.31709608758291447  1.0000
  Si  Si12      1.0  0.179336029165041  0.880874680893665  0.6562015625348089  1.0000
  Si  Si13      1.0  0.1784070265357388  0.0858074308259025  0.6585042941640197  1.0000
  Si  Si14      1.0  0.7886714174065181  0.08576847205125929  0.3146663853295271  1.0000
  Si  Si15      1.0  0.38536980370155655  0.38133662468063845  0.6848077964550089  1.0000
  Si  Si16      1.0  0.5816531735291651  0.381299256542083  0.2885610185841081  1.0000
  Si  Si17      1.0  0.5790237191752199  0.5860994562950821  0.2952840772408882  1.0000
  Si  Si18      1.0  0.3879809925488032  0.5861127250269804  0.677908626933373  1.0000
  Si  Si19      1.0  0.8869113306103745  0.8803670361747181  0.6751387160792551  1.0000
  Si  Si20      1.0  0.08016850668319321  0.8802734080873971  0.2982279344512957  1.0000
  Si  Si21      1.0  0.08066337579783638  0.08447380728804507  0.29928258398966934  1.0000
  Si  Si22      1.0  0.8863770347344948  0.0845153088472081  0.6739555273934463  1.0000
  O   O1        1.0  0.48499747985160163  0.20294088121299517  0.9847216736861414  1.0000
  O   O2        1.0  0.48387448301985225  0.7627564049619744  0.986233352557498  1.0000
  O   O3        1.0  0.9839044211012627  0.7055371713675725  0.9861539753482141  1.0000
  O   O4        1.0  0.9852163692420959  0.2521117101495651  0.9844770071047695  1.0000
  O   O5        1.0  0.29647430885910286  0.14774768289470233  0.7569550831145578  1.0000
  O   O6        1.0  0.6705468906932457  0.1477155312033035  0.21622701076796397  1.0000
  O   O7        1.0  0.6686634028100367  0.8205249832613547  0.21617265966306143  1.0000
  O   O8        1.0  0.29846574367654377  0.8206570863532476  0.7573092578008837  1.0000
  O   O9        1.0  0.7971972568306568  0.6516162986955077  0.7523258109778349  1.0000
  O   O10       1.0  0.16979406790360124  0.6515279304476769  0.22083745309823144  1.0000
  O   O11       1.0  0.1559209820693978  0.3171437686662859  0.2149693615555012  1.0000
  O   O12       1.0  0.8111660677511058  0.31738583996051256  0.7583103926267261  1.0000
  O   O13       1.0  0.3266633249981306  0.323464095959233  0.8026287308572441  1.0000
  O   O14       1.0  0.6402730676713784  0.3235103362224076  0.17060534592013055  1.0000
  O   O15       1.0  0.6374196495148975  0.6453437195675892  0.1789628317571904  1.0000
  O   O16       1.0  0.32949140716240316  0.645479120233485  0.7940009306734181  1.0000
  O   O17       1.0  0.829277016219019  0.8242463493895399  0.7959064649702002  1.0000
  O   O18       1.0  0.1377558701310826  0.8241946776825171  0.17737636249813132  1.0000
  O   O19       1.0  0.1443498978244938  0.14072898440017578  0.1842317269797647  1.0000
  O   O20       1.0  0.822467720052249  0.14091849536944828  0.7887051077071466  1.0000
  O   O21       1.0  0.23899517635868048  0.23054455706465046  0.9951595963430433  1.0000
  O   O22       1.0  0.7331340868775377  0.23118228595774887  0.9823819787171808  1.0000
  O   O23       1.0  0.7343316371904585  0.7336662233589908  0.9877088369197075  1.0000
  O   O24       1.0  0.2339083274738003  0.7337091860714048  0.9865586949785412  1.0000
  O   O25       1.0  0.42400299438645  0.3590507997993314  0.25260526302077047  1.0000
  O   O26       1.0  0.5430571807110334  0.35910638867295885  0.7208742251518165  1.0000
  O   O27       1.0  0.5458353011485608  0.6050032251065555  0.7101777585356724  1.0000
  O   O28       1.0  0.4211498014058621  0.6049475226548845  0.26295788282356813  1.0000
  O   O29       1.0  0.9234678176447473  0.8584649860484237  0.269136223223735  1.0000
  O   O30       1.0  0.04362644966283928  0.8585776369972715  0.7041907349642986  1.0000
  O   O31       1.0  0.04351877627072573  0.10681718268298  0.709196500647114  1.0000
  O   O32       1.0  0.923556317385882  0.10685269703148151  0.263994639801546  1.0000
  O   O33       1.0  0.30601781304319386  0.35216610844626356  0.509310811607655  1.0000
  O   O34       1.0  0.6610129827107676  0.3520914403638337  0.4640295877706357  1.0000
  O   O35       1.0  0.6570415222355388  0.6120613500147457  0.47255040601735754  1.0000
  O   O36       1.0  0.3099364575599723  0.6119223090427591  0.5006011646808955  1.0000
  O   O37       1.0  0.8039289862060892  0.8564948638871482  0.498520165110793  1.0000
  O   O38       1.0  0.16316266577248864  0.8563418644645646  0.4748143005813268  1.0000
  O   O39       1.0  0.15970922512190633  0.10921965090426591  0.4765720709057309  1.0000
  O   O40       1.0  0.8072930206161301  0.10910820128687007  0.49662199277606717  1.0000
  O   O41       1.0  0.23143926692904912  0.48848401391777485  0.2799980381568162  1.0000
  O   O42       1.0  0.73556676773409  0.48857220381989336  0.6930235178801674  1.0000
  O   O43       1.0  0.7438870399195866  0.9832632453115233  0.2796877231097078  1.0000
  O   O44       1.0  0.22327981693041346  0.983313136899858  0.6933967899764473  1.0000
  O   O45       1.0  0.36008605395281806  0.48439081507230997  0.7181512168972816  1.0000
  O   O46       1.0  0.6069665608446646  0.4843504674455163  0.2552566695242819  1.0000
  O   O47       1.0  0.8632523397905532  0.9824987367658634  0.7151123730440117  1.0000
  O   O48       1.0  0.10380829017412954  0.9824176329718242  0.25836385285698504  1.0000
