data_image0
_chemical_formula_structural       Ge2Si22O48
_chemical_formula_sum              "Ge2 Si22 O48"
_cell_length_a       10.738682807985871
_cell_length_b       15.584975100770794
_cell_length_c       9.197250861337125
_cell_angle_alpha    89.86770777161085
_cell_angle_beta     105.5952159076074
_cell_angle_gamma    89.8090762045532

_space_group_name_H-M_alt    "P 1"
_space_group_IT_number       1

loop_
  _space_group_symop_operation_xyz
  'x, y, z'

loop_
  _atom_site_type_symbol
  _atom_site_label
  _atom_site_symmetry_multiplicity
  _atom_site_fract_x
  _atom_site_fract_y
  _atom_site_fract_z
  _atom_site_occupancy
  Ge  Ge1       1.0  0.3422223146138666  0.2240062954415624  0.8860528687392816  1.0000
  Ge  Ge2       1.0  0.6465202236036118  0.23123410607409106  0.10108523422709322  1.0000
  Si  Si1       1.0  0.6302695080238877  0.738596252906176  0.10007943184900656  1.0000
  Si  Si2       1.0  0.33494009239667666  0.7380853232867995  0.8893797166634891  1.0000
  Si  Si3       1.0  0.8345965431745322  0.7253141596228393  0.8909552387463187  1.0000
  Si  Si4       1.0  0.13015702812070787  0.7284219846381843  0.09839068304907428  1.0000
  Si  Si5       1.0  0.13838350182328932  0.23740070174766456  0.0991224345931451  1.0000
  Si  Si6       1.0  0.8507068347534841  0.2409691422399736  0.8895381762084997  1.0000
  Si  Si7       1.0  0.2805662116616008  0.3821739047126228  0.32004057714833917  1.0000
  Si  Si8       1.0  0.670691658775426  0.37932478140020404  0.6670669090090666  1.0000
  Si  Si9       1.0  0.6705459822974357  0.5853211016521458  0.6677502643369122  1.0000
  Si  Si10      1.0  0.2783546259652938  0.5864614103823815  0.32528314262804064  1.0000
  Si  Si11      1.0  0.7761033750424882  0.8804878788735067  0.3249275366399218  1.0000
  Si  Si12      1.0  0.16863456376603222  0.8759095960046643  0.6606434392267905  1.0000
  Si  Si13      1.0  0.17124496088539032  0.08095732924631661  0.6610825681629706  1.0000
  Si  Si14      1.0  0.7775582587470015  0.08340974138047959  0.3306667995604754  1.0000
  Si  Si15      1.0  0.37711730562869067  0.381294774909599  0.6810257701435489  1.0000
  Si  Si16      1.0  0.5748022358428533  0.38384164198776666  0.3078900127367746  1.0000
  Si  Si17      1.0  0.573652271977952  0.588626885784964  0.31064859273059875  1.0000
  Si  Si18      1.0  0.37636510151955405  0.5854820323527214  0.6844147105066577  1.0000
  Si  Si19      1.0  0.8767261603008234  0.8789293631283133  0.6851422924656173  1.0000
  Si  Si20      1.0  0.06977516203793177  0.8803244089789546  0.3022629993806479  1.0000
  Si  Si21      1.0  0.06963707622537431  0.08449432377156851  0.30352961123690053  1.0000
  Si  Si22      1.0  0.8809017103952879  0.08292814064988269  0.6898559998632794  1.0000
  O   O1        1.0  0.5121455595947566  0.20592452597489355  0.9468197036520671  1.0000
  O   O2        1.0  0.48936609197497893  0.7587405484135991  0.9752098003928807  1.0000
  O   O3        1.0  0.9898177503781747  0.7057122477726703  0.975396178815666  1.0000
  O   O4        1.0  0.009010384714772264  0.26038728105207626  0.9567557728827569  1.0000
  O   O5        1.0  0.29747153756574185  0.13618375175759645  0.7603807715713348  1.0000
  O   O6        1.0  0.6578393886988313  0.14665679671805543  0.23458477542049178  1.0000
  O   O7        1.0  0.6572154888853405  0.8200945010419339  0.22286591610303225  1.0000
  O   O8        1.0  0.2897820832311948  0.8164152795310495  0.7615260791345382  1.0000
  O   O9        1.0  0.7911567800357437  0.6428198468666756  0.772763547194899  1.0000
  O   O10       1.0  0.1594419093869191  0.6479568112195304  0.22407616083276383  1.0000
  O   O11       1.0  0.16254420758220633  0.3203500449270744  0.2191588734284292  1.0000
  O   O12       1.0  0.7928673916987442  0.32000367060150314  0.7668175457054969  1.0000
  O   O13       1.0  0.30738161668985653  0.32506863580124146  0.7926054235054577  1.0000
  O   O14       1.0  0.6390110751939463  0.33244848122291437  0.18696631526284838  1.0000
  O   O15       1.0  0.6316627520941777  0.6455191333488527  0.19108963300592902  1.0000
  O   O16       1.0  0.31688757693656033  0.6423945705770944  0.8034328611936702  1.0000
  O   O17       1.0  0.814936132780657  0.8194216118433938  0.7989376380222806  1.0000
  O   O18       1.0  0.12716582322474163  0.8230290951080168  0.18257917474033827  1.0000
  O   O19       1.0  0.12316611755264133  0.14520541757966193  0.1852426824917409  1.0000
  O   O20       1.0  0.8246188755945593  0.1445289986127904  0.8059980232382563  1.0000
  O   O21       1.0  0.26989379967854965  0.22132604353061078  0.03790987299643268  1.0000
  O   O22       1.0  0.7876812892041819  0.2399722467547858  0.03677556846879105  1.0000
  O   O23       1.0  0.7488565271105887  0.7304448558352947  0.01623124955599739  1.0000
  O   O24       1.0  0.24822772771944496  0.736559047256521  0.013785983901360419  1.0000
  O   O25       1.0  0.4161249045699589  0.36351799744540486  0.26758088383782247  1.0000
  O   O26       1.0  0.5359799562151945  0.3587601643146979  0.7207267136236362  1.0000
  O   O27       1.0  0.5345184538585622  0.6064082686069674  0.7176579808936988  1.0000
  O   O28       1.0  0.4149339134520349  0.6078127141688284  0.2772164058600794  1.0000
  O   O29       1.0  0.912042044783698  0.8600241976333416  0.2746659549976537  1.0000
  O   O30       1.0  0.03346250463425953  0.8541733955159175  0.7117379851129629  1.0000
  O   O31       1.0  0.038083727387687234  0.10475264351548359  0.7149260681512766  1.0000
  O   O32       1.0  0.9122493488421622  0.10455568456529135  0.27898650740056946  1.0000
  O   O33       1.0  0.30136743027486074  0.3570980882382697  0.5021206321859369  1.0000
  O   O34       1.0  0.6498911263664799  0.35406517508676694  0.48496457573343343  1.0000
  O   O35       1.0  0.6535955168929157  0.6143841231073865  0.48781927149311344  1.0000
  O   O36       1.0  0.2949650098356949  0.6103292117746665  0.5070622529358388  1.0000
  O   O37       1.0  0.7930592469629144  0.8579268951331895  0.5073761617247601  1.0000
  O   O38       1.0  0.15170117204941153  0.8531929325909672  0.4784495971485557  1.0000
  O   O39       1.0  0.153689629469228  0.10739902478261802  0.4802358623144286  1.0000
  O   O40       1.0  0.7954605355635704  0.10501704141917978  0.5131079309490378  1.0000
  O   O41       1.0  0.23252375726732244  0.48443364268291816  0.2875111563780789  1.0000
  O   O42       1.0  0.7139041334965717  0.48219858287474765  0.6979196877633563  1.0000
  O   O43       1.0  0.7287239432318451  0.9825351316568903  0.28869860887932086  1.0000
  O   O44       1.0  0.2127452717600591  0.9780898836231902  0.6956931967139595  1.0000
  O   O45       1.0  0.3516629817467925  0.4830321052706746  0.7222312654868518  1.0000
  O   O46       1.0  0.6024720442224367  0.48651588945189184  0.27572005488186047  1.0000
  O   O47       1.0  0.8588447615019011  0.9808453797985685  0.7339030805088727  1.0000
  O   O48       1.0  0.0942915479729902  0.9825223216884253  0.26144263998518336  1.0000
